%nproc=32
%mem=180GB
%chk=B3LYP6-31Gdp.Frag_959.chk
#P OPT Freq B3LYP/6-31G(d,p)

Frag_959

0 1
C                    -1.16813  -0.76889   0.19755
N                    -0.13168   0.24432   0.25001
N                    -0.53248   1.59298   0.19737
C                     1.13927  -0.06409  -0.20882
N                     1.58446  -1.19005  -0.61567
O                     1.97532   0.99072  -0.13771
H                    -1.55834  -0.93601  -0.81937
H                    -0.79241  -1.7176    0.58892
H                    -1.99523  -0.44882   0.83661
H                    -1.1844    1.73255  -0.5743
H                    -1.01733   1.82126   1.06045
H                     0.86484  -1.90017  -0.68888
H                     2.81599   0.64389  -0.46626

