%nproc=32
%mem=180GB
%chk=B3LYP6-31Gdp.Frag_914.chk
#P OPT Freq B3LYP/6-31G(d,p)

Frag_914

0 1
C                    -1.50085  -0.97063  -0.49113
C                    -0.54015   0.21358  -0.40522
N                    -1.21524   1.35822   0.20925
C                     0.77502  -0.16278   0.30868
N                     1.65184   0.99231   0.36154
O                     1.32273  -1.27573  -0.39567
H                    -2.41528  -0.67128  -1.00976
H                    -1.04276  -1.80929  -1.01665
H                    -1.78074  -1.31421   0.51348
H                    -0.25818   0.5071   -1.42788
H                    -0.51054   2.05524   0.4385
H                    -1.61969   1.06902   1.09757
H                     0.54633  -0.44193   1.3501
H                     2.44407   0.83031   0.97481
H                     2.02079   1.17594  -0.56821
H                     2.12254  -1.55577   0.06059

