%nproc=32
%mem=180GB
%chk=B3LYP6-31Gdp.Frag_1164.chk
#P OPT Freq B3LYP/6-31G(d,p)

Frag_1164

0 1
C                     1.75692  -0.92955   0.19802
N                     0.9601    0.01193  -0.58795
C                    -0.35642   0.39327  -0.04929
C                    -1.29857  -0.7878    0.2422
N                    -0.08517   1.09079   1.2039
N                    -1.03277   1.27352  -1.01084
H                     1.87605  -0.53381   1.20828
H                     1.32818  -1.94167   0.27997
H                     2.74865  -1.02188  -0.25635
H                     0.8226   -0.35173  -1.52498
H                    -1.47712  -1.3733   -0.66645
H                    -2.26434  -0.42446   0.60506
H                    -0.8685   -1.44308   1.00119
H                     0.55484   1.85625   1.00654
H                    -0.95077   1.50821   1.53288
H                    -0.34679   1.93347  -1.37203
H                    -1.36688   0.73985  -1.81033

