%nproc=32
%mem=180GB
#P OPT Freq B3LYP/6-31G**

Frag_221

0 1
C                    -0.932    -0.3852   -0.036
C                     0.2319    0.596     0.0224
C                     1.5106   -0.1226    0.0384
N                     2.5196   -0.6893    0.0511
H                    -0.8718   -1.0027   -0.9581
H                    -1.8899    0.1763   -0.0475
H                    -0.9218   -1.0512    0.8536
H                     0.2016    1.2635   -0.8645
H                     0.1518    1.2152    0.9406

