%nproc=32
%mem=180GB
%chk=B3LYP6-31Gdp.Frag_433.chk
#P OPT Freq B3LYP/6-31G(d,p)

Frag_433

0 1
C                    -1.2298   -1.10094   0.08753
C                    -0.47825   0.00822   0.14887
N                    -0.68929   1.06567   1.02053
C                     0.74388   0.19029  -0.75489
O                     1.66899   1.10887  -0.20291
O                     1.33426  -1.03287  -1.08893
H                    -1.00774  -1.87975  -0.62805
H                    -2.10326  -1.23344   0.7164
H                    -0.19988   1.91467   0.78336
H                    -1.63299   1.2005    1.34804
H                     0.44521   0.66253  -1.69808
H                     1.98833   0.74101   0.63043
H                     1.16045  -1.64456  -0.36252

