%nproc=32
%mem=180GB
%chk=B3LYP6-31Gdp.Frag_571.chk
#P OPT Freq B3LYP/6-31G(d,p)

Frag_571

0 1
C                    -0.57469   1.27317   0.72145
C                    -0.39295   0.16542  -0.33183
C                    -1.07393  -1.14345   0.10672
O                    -0.97221   0.59334  -1.54366
C                     1.11064  -0.07371  -0.61208
N                     1.88006  -0.49479   0.4205
O                     1.56077   0.11808  -1.73134
H                    -0.18936   0.98635   1.70541
H                    -1.64138   1.49146   0.82322
H                    -0.06909   2.1882    0.40135
H                    -2.14935  -0.96803   0.19907
H                    -0.70357  -1.50894   1.07014
H                    -0.91947  -1.92209  -0.64511
H                    -0.23547   0.60302  -2.17958
H                     1.50976  -0.65264   1.34001
H                     2.86014  -0.65549   0.25583

