%nproc=32
%mem=180GB
#P OPT=calcfc Freq B3LYP/6-31G**

Frag_201

0 1
C                    -0.1316   -1.5519   -0.4281
N                     0.0719   -0.1304   -0.1697
C                    -0.8551    0.5941    0.7008
N                     1.1649    0.5219   -0.7677
N                     1.3866    1.7585   -0.575
H                    -0.092    -2.1161    0.5275
H                     0.6583   -1.9415   -1.1051
H                    -1.1208   -1.7079   -0.9077
H                    -1.6529   -0.0795    1.0811
H                    -1.3312    1.421     0.1334
H                    -0.3028    1.013     1.568
H                     2.2045    2.2189   -1.0304

