%nproc=32
%mem=180GB
%chk=B3LYP6-31Gdp.Frag_545.chk
#P OPT Freq B3LYP/6-31G(d,p)

Frag_545

0 1
C                     1.17205  -0.20033   0.15786
C                    -0.30755   0.17176   0.23583
O                    -0.46103   1.44323  -0.36802
C                    -1.15265  -0.83973  -0.43678
N                    -1.83865  -1.61001  -0.95792
H                     1.35102  -1.16947   0.62896
H                     1.75538   0.56473   0.67518
H                     1.4925   -0.24492  -0.88531
H                    -0.6188    0.19598   1.29165
H                    -1.39228   1.68877  -0.34136

