%nproc=128
%mem=128GB
#P OPT Freq B3LYP/6-31G**

Frag_87

0 1
C                     1.848     0.1093    0.
C                     0.6087   -0.4004    0.
C                    -0.6087    0.4004    0.
C                    -1.848    -0.1093    0.
H                     2.0196    1.1827    0.
H                     2.7273   -0.5262    0.
H                     0.4744   -1.482     0.
H                    -0.4744    1.482     0.
H                    -2.0196   -1.1827    0.
H                    -2.7273    0.5262    0.

