%nproc=32
%mem=180GB
%chk=B3LYP6-31Gdp.Frag_639.chk
#P OPT Freq B3LYP/6-31G(d,p)

Frag_639

0 1
C                     2.14168   0.11806  -0.22121
C                     0.93805   0.07411  -0.2244
C                    -0.48821   0.11297  -0.20787
C                    -1.25715  -0.95457  -0.44203
O                    -1.05051   1.33239   0.06751
H                     3.20383   0.13063  -0.22425
H                    -2.33625  -0.87182  -0.41761
H                    -0.80776  -1.91245  -0.65839
H                    -0.34367   1.97056   0.20614

