%nproc=32
%mem=180GB
%chk=B3LYP6-31Gdp.Frag_1010.chk
#P OPT Freq B3LYP/6-31G(d,p)

Frag_1010

0 1
C                    -0.75621   1.31832  -0.2228
N                    -0.20773   0.00275   0.25449
C                    -1.3109   -1.00287   0.32528
O                     0.35203   0.14952   1.48098
C                     0.85437  -0.5012   -0.71442
N                     1.96245   0.41326  -0.61561
H                    -1.40827   1.68041   0.57025
H                    -1.3044    1.20045  -1.16303
H                     0.09298   1.98447  -0.35442
H                    -1.74687  -1.19004  -0.66196
H                    -0.88354  -1.91178   0.74622
H                    -2.05938  -0.60707   1.01082
H                     0.44508  -0.52376  -1.73183
H                     1.05283  -1.52752  -0.37442
H                     2.13758   0.48848   0.38926
H                     2.78019   0.02669  -1.07313

