%nproc=128
%mem=128GB
#P OPT Freq B3LYP/6-31G**

Frag_43

0 1
C                    -0.5874    1.4786   -0.5554
C                    -0.5874    0.4958    0.6208
C                     0.5874   -0.4958    0.6208
C                     0.5874   -1.4786   -0.5554
H                     0.3428    2.0582   -0.5849
H                    -1.4173    2.1886   -0.4766
H                    -0.6871    0.9654   -1.5172
H                    -1.5318   -0.0661    0.6269
H                    -0.5676    1.0642    1.5596
H                     0.5676   -1.0642    1.5596
H                     1.5318    0.0661    0.6269
H                     1.4173   -2.1886   -0.4766
H                    -0.3428   -2.0582   -0.5849
H                     0.6871   -0.9654   -1.5172

