%nproc=32
%mem=180GB
%chk=B3LYP6-31Gdp.Frag_479.chk
#P OPT Freq B3LYP/6-31G(d,p)

Frag_479

0 1
C                    -1.39592   0.08795   0.25817
N                    -0.20357  -0.29613   0.47318
C                     0.80278   0.30824  -0.31447
N                     2.03468   0.03371  -0.22017
H                    -1.66242   0.84598  -0.4914
H                    -2.21157  -0.34426   0.83654
H                     0.47604   1.05882  -1.0471
H                     2.15997  -0.68001   0.50524

