%nproc=32
%mem=180GB
%chk=B3LYP6-31Gdp.Frag_1085.chk
#P OPT Freq B3LYP/6-31G(d,p)

Frag_1085

0 1
C                     0.95977   1.08633   0.44411
N                     0.54139  -0.29269   0.17819
C                     1.35441  -0.92221  -0.85258
N                    -0.81656  -0.48532  -0.10819
C                    -1.65892  -0.23839   1.05567
O                    -1.27543   0.47888  -1.11927
H                     0.37197   1.5119    1.25971
H                     2.00636   1.07024   0.76039
H                     0.86294   1.73581  -0.43685
H                     1.30299  -0.39491  -1.82007
H                     1.01287  -1.94997  -0.99168
H                     2.39914  -0.93513  -0.52803
H                    -1.65761   0.80983   1.38426
H                    -2.68289  -0.51231   0.79471
H                    -1.30452  -0.87716   1.86692
H                    -1.4157   -0.08479  -1.8875

