%nproc=32
%mem=180GB
#P OPT=calcfc Freq B3LYP/6-31G**

Frag_295

0 1
C                     1.3279   -1.0732   -1.0324
C                     0.7627    0.1221   -0.2194
C                     0.9125    1.3864   -1.1072
C                     1.6924    0.3165    1.0081
C                    -0.7627   -0.1221    0.2194
C                    -0.8761   -1.1818    1.3479
C                    -1.6305   -0.6254   -0.9649
C                    -1.4262    1.1774    0.7485
H                     2.4099   -0.9282   -1.2438
H                     1.2266   -2.0296   -0.4818
H                     0.8217   -1.17     -2.0158
H                     1.956     1.4845   -1.4788
H                     0.6901    2.3118   -0.5356
H                     0.2506    1.3462   -1.9952
H                     2.723     0.5788    0.6831
H                     1.3382    1.1342    1.667
H                     1.7749   -0.6155    1.6058
H                    -0.4237   -0.8166    2.2937
H                    -1.9421   -1.4065    1.5705
H                    -0.3916   -2.1375    1.0648
H                    -2.6994   -0.6965   -0.6667
H                    -1.3226   -1.6414   -1.29
H                    -1.5775    0.0601   -1.8341
H                    -2.4474    0.968     1.1357
H                    -0.8463    1.6265    1.5793
H                    -1.5404    1.9317   -0.0582

