%nproc=32
%mem=180GB
#P OPT=calcfc Freq B3LYP/6-31G**

Frag_126

0 1
C                    -0.7149    1.1649   -0.0068
C                    -0.0345    0.0149    0.0007
N                    -0.7506   -1.2255    0.0524
N                     1.4033    0.0137   -0.0426
O                     2.0308   -1.065    -0.0352
O                     2.1109    1.1935   -0.0925
H                    -0.2089    2.1205   -0.0452
H                    -1.7972    1.1665    0.0257
H                    -0.244    -2.1381    0.0593
H                    -1.7948   -1.2455    0.0843

