%nproc=32
%mem=180GB
#P OPT=calcfc Freq B3LYP/6-31G**

Frag_327

0 1
C                     0.8839   -0.3568    0.9451
C                     0.0995    0.2282    0.0323
N                     0.0856    1.6565   -0.0625
C                    -0.7272   -0.5484   -0.9231
N                    -1.0626   -1.7873   -0.7369
H                     1.4814    0.2437    1.6194
H                     0.9782   -1.4299    1.027
H                     0.6633    2.2488    0.5756
H                    -0.5115    2.1358   -0.7728
H                    -1.1085   -0.0421   -1.8002
H                    -0.7821   -2.3483    0.096

