%nproc=32
%mem=180GB
%chk=B3LYP6-31Gdp.Frag_939.chk
#P OPT Freq B3LYP/6-31G(d,p)

Frag_939

0 1
C                    -0.12741  -1.52745  -0.20606
C                    -0.14335  -0.00173  -0.23621
C                     1.20139   0.61987   0.12829
O                    -1.16386   0.35759   0.70163
O                    -1.36104   1.7871    0.62445
H                     0.14147  -1.88735   0.79172
H                     0.61005  -1.90633  -0.91913
H                    -1.10754  -1.93428  -0.46828
H                    -0.45346   0.34682  -1.23301
H                     1.53255   0.26423   1.10927
H                     1.12038   1.70803   0.16179
H                     1.95991   0.35078  -0.61394
H                    -2.20909   1.82262   0.15957

