%nproc=32
%mem=180GB
%chk=B3LYP6-31Gdp.Frag_529.chk
#P OPT Freq B3LYP/6-31G(d,p)

Frag_529

0 1
C                     1.99869  -0.45322  -0.05635
C                     0.86155   0.52469   0.1535
O                     1.00331   1.55225   0.77734
C                    -0.49773   0.15716  -0.45346
C                    -1.2143   -0.81458   0.51363
N                    -1.23731   1.38239  -0.72698
H                     2.82535  -0.2169    0.61467
H                     2.34635  -0.3707   -1.09343
H                     1.6759   -1.48864   0.08807
H                    -0.3126   -0.38034  -1.39478
H                    -2.19107  -1.08856   0.1019
H                    -1.37193  -0.33496   1.48505
H                    -0.6521   -1.7413    0.67048
H                    -0.99799   2.05806  -0.00536
H                    -2.23622   1.21455  -0.67428

