%nproc=32
%mem=180GB
%chk=B3LYP6-31Gdp.Frag_827.chk
#P OPT Freq B3LYP/6-31G(d,p)

Frag_827

0 1
N                    -1.29159   0.01359  -0.28464
N                    -0.16557   0.5284    0.3409
N                     1.07062  -0.1471    0.12379
O                     1.00364  -1.30777  -0.23451
O                     2.06627   0.5094    0.36583
H                    -1.62178  -0.77665   0.25977
H                    -1.06438  -0.33328  -1.21604
H                     0.00288   1.51361   0.16979

