%nproc=32
%mem=180GB
%chk=B3LYP6-31Gdp.Frag_467.chk
#P OPT Freq B3LYP/6-31G(d,p)

Frag_467

0 1
N                    -0.70396  -0.1903    0.0314
N                     0.17969   0.97077   0.28324
O                     1.43406   0.4468   -0.18675
H                    -1.65679   0.14144   0.18378
H                    -0.61969  -0.53059  -0.93881
H                    -0.54976  -1.02232   0.63705
H                     1.91654   0.1841    0.61079

