%nproc=32
%mem=180GB
%chk=B3LYP6-31Gdp.Frag_714.chk
#P OPT Freq B3LYP/6-31G(d,p)

Frag_714

0 1
C                    -0.84508  -0.08261  -0.11099
N                     0.4851    0.51734  -0.1516
O                     1.40298  -0.44563   0.40652
H                    -0.90279  -0.8817   -0.85559
H                    -1.10627  -0.5002    0.8718
H                    -1.572     0.6925   -0.37714
H                     0.50751   1.2745    0.52968
H                     2.03055  -0.5742   -0.31277

