%nproc=32
%mem=180GB
%chk=B3LYP6-31Gdp.Frag_527.chk
#P OPT Freq B3LYP/6-31G(d,p)

Frag_527

0 1
C                     2.17561  -0.41686   1.35619
C                     1.09912  -0.20594   0.86742
C                    -0.19368   0.04533   0.21821
C                    -0.09378   1.30104  -0.66892
C                    -0.60752  -1.18694  -0.60885
O                    -1.13668   0.26556   1.27467
H                     3.12124  -0.60132   1.80299
H                     0.1674    2.16815  -0.0587
H                    -1.05781   1.48958  -1.15587
H                     0.66349   1.17586  -1.44762
H                    -0.70512  -2.05736   0.04333
H                    -1.57204  -1.00079  -1.09574
H                     0.12995  -1.40796  -1.38522
H                    -1.98999   0.43165   0.8582

