%nproc=128
%mem=128GB
#P OPT Freq B3LYP/6-31G**

Frag_55

0 1
C                     0.        1.4594    0.
C                     0.        0.123    -0.0006
C                     1.2775   -0.6787    0.0001
C                    -1.2775   -0.6787    0.0001
H                    -0.9246    2.0299    0.0005
H                     0.9246    2.0299    0.0005
H                     1.3307   -1.3337    0.8796
H                     2.1618   -0.0361   -0.0005
H                     1.3305   -1.3351   -0.8784
H                    -1.3307   -1.3337    0.8796
H                    -2.1618   -0.0361   -0.0005
H                    -1.3305   -1.3351   -0.8784

