%nproc=32
%mem=180GB
%chk=B3LYP6-31Gdp.Frag_1145.chk
#P OPT Freq B3LYP/6-31G(d,p)

Frag_1145

0 1
C                    -1.70852  -0.73427   0.29691
C                    -0.42015  -0.02976  -0.12372
N                    -0.4559    1.37093   0.40761
N                     0.66885  -0.85528   0.30193
N                     1.85534  -0.2367   -0.22301
H                    -1.7324   -0.84033   1.38667
H                    -2.58169  -0.1575   -0.01579
H                    -1.75115  -1.7358   -0.13851
H                    -0.44721   0.1167   -1.23403
H                    -0.17245   1.34839   1.38581
H                     0.18384   1.98869  -0.08339
H                     2.64945  -0.79487   0.08479
H                     1.90093  -0.17929  -1.26539
H                     2.01115   0.7391    0.1053

