%nproc=32
%mem=180GB
%chk=B3LYP6-31Gdp.Frag_719.chk
#P OPT Freq B3LYP/6-31G(d,p)

Frag_719

0 1
C                     1.89692  -0.44339  -0.62021
C                     1.06284   0.08839   0.52474
O                     1.53906   0.37009   1.59702
C                    -0.4512    0.32651   0.24645
C                    -1.13444  -0.88051  -0.40462
N                    -1.09091   0.62473   1.49757
O                    -0.40648   1.42554  -0.69028
H                     1.66843   0.10397  -1.53782
H                     2.95416  -0.3506   -0.36999
H                     1.66529  -1.4997   -0.79724
H                    -0.70221  -1.10882  -1.38137
H                    -2.20059  -0.66122  -0.5441
H                    -1.0658   -1.75975   0.24026
H                    -1.98685   1.07486   1.34628
H                    -0.49792   1.23743   2.04768
H                    -1.2504    1.45277  -1.15447

