%nproc=32
%mem=180GB
#P OPT=calcfc Freq B3LYP/6-31G**

Frag_377

0 1
C                     1.6529    0.1256    0.5185
N                     0.4815   -0.113    -0.3153
C                    -0.8491    0.0783    0.1789
N                    -1.9687   -0.1666   -0.6708
O                    -1.0393    0.463     1.3642
H                     1.669     1.1848    0.8512
H                     1.6265   -0.5424    1.4051
H                     2.5771   -0.0829   -0.0608
H                     0.6196   -0.4323   -1.3005
H                    -1.8286   -0.4857   -1.6549
H                    -2.9409   -0.0288   -0.3157

