%nproc=32
%mem=180GB
%chk=B3LYP6-31Gdp.Frag_886.chk
#P OPT Freq B3LYP/6-31G(d,p)

Frag_886

0 1
C                    -0.91794  -0.57924  -1.30576
C                    -0.39824  -0.17753   0.0848
C                    -1.12584   1.05882   0.61075
O                    -0.63357  -1.21896   1.02122
C                     1.126     0.08879   0.00538
O                     1.68604   0.55317   1.2165
O                     1.73288  -1.14798  -0.26436
H                    -1.98181  -0.82189  -1.23935
H                    -0.38338  -1.458    -1.67548
H                    -0.79253   0.22953  -2.03452
H                    -2.20003   0.86192   0.65929
H                    -0.96834   1.92358  -0.04332
H                    -0.78037   1.29754   1.61942
H                     0.07317  -1.86254   0.88182
H                     1.33281   0.81325  -0.80365
H                     1.57688   1.50783   1.2605
H                     2.65426  -1.06829   0.00678

