%nproc=32
%mem=180GB
%chk=B3LYP6-31Gdp.Frag_938.chk
#P OPT Freq B3LYP/6-31G(d,p)

Frag_938

0 1
C                    -1.23965  -1.10865   0.54968
C                    -0.68327   0.24184   0.09835
N                    -0.7231    1.1832    1.18804
O                    -1.41294   0.68284  -1.07577
C                     0.78532   0.13105  -0.42408
C                     1.74704  -0.53586   0.55365
O                     1.17483   1.47733  -0.665
O                     0.80784  -0.60906  -1.61502
H                    -0.74671  -1.45461   1.45928
H                    -1.11137  -1.85389  -0.23786
H                    -2.31005  -1.01273   0.77307
H                    -0.36511   2.07601   0.86507
H                    -1.6766    1.31822   1.50905
H                    -2.32205   0.37903  -0.99331
H                     1.72128  -0.01648   1.51239
H                     1.50015  -1.58938   0.69953
H                     2.76089  -0.48685   0.14362
H                     2.03192   1.44132  -1.10293
H                     0.06159  -0.26342  -2.12797

