%nproc=32
%mem=180GB
%chk=B3LYP6-31Gdp.Frag_591.chk
#P OPT Freq B3LYP/6-31G(d,p)

Frag_591

0 1
C                    -1.46861  -0.50346  -0.11927
N                    -0.10018  -0.00715   0.07037
N                     0.24237   0.94126  -1.05391
C                     0.77829  -0.47282   0.92306
O                     0.4827   -1.29494   1.71228
O                     2.02671   0.06375   0.85678
H                    -2.37892   0.21968  -0.14515
H                    -1.46224  -0.88513  -1.23827
H                    -1.59424  -1.22661   0.89949
H                     0.99929   0.68562  -1.74169
H                     0.39824   1.78752  -0.69998
H                     2.07669   0.69739   0.21629

