%nproc=32
%mem=180GB
%chk=B3LYP6-31Gdp.Frag_586.chk
#P OPT Freq B3LYP/6-31G(d,p)

Frag_586

0 1
N                     0.97608  -0.16199  -0.33257
C                    -0.24818   0.03042   0.42307
O                    -0.72909   1.31805   0.1642
O                    -1.13822  -0.99601   0.09059
H                     1.37316  -1.07351  -0.12685
H                     1.65906   0.54392  -0.0755
H                    -0.1491   -0.02184   1.51552
H                    -0.64631   1.45703  -0.78869
H                    -1.0975   -1.09607  -0.86988

