%nproc=32
%mem=180GB
%chk=B3LYP6-31Gdp.Frag_1106.chk
#P OPT Freq B3LYP/6-31G(d,p)

Frag_1106

0 1
N                     1.65805  -0.78434  -0.39024
C                     0.68698   0.31326  -0.43036
C                    -0.47114   0.05954   0.55926
N                    -1.49736   1.09816   0.50927
N                    -1.10153  -1.24573   0.36916
H                     2.33569  -0.68868  -1.13929
H                     2.18527  -0.75063   0.4779
H                     1.1203    1.30773  -0.22114
H                     0.26525   0.35123  -1.44433
H                    -0.04917   0.08635   1.57714
H                    -1.71007   1.32343  -0.4608
H                    -1.14636   1.95389   0.92711
H                    -1.86459  -1.15208  -0.2945
H                    -0.41132  -1.87243  -0.03919

