%nproc=128
%mem=128GB
#P OPT Freq B3LYP/6-31G**

Frag_51

0 1
C                    -0.0001    1.4601    0.2206
C                    -1.2652    0.7114   -0.2278
C                    -1.2164   -0.7592    0.2242
N                     0.0001   -1.4732   -0.1791
C                     1.2165   -0.759     0.2242
C                     1.2651    0.7116   -0.2278
H                    -0.0002    2.4858   -0.1666
H                    -0.0001    1.541     1.3172
H                    -1.3419    0.7473   -1.3242
H                    -2.1655    1.1995    0.1669
H                    -2.0834   -1.3112   -0.156
H                    -1.2736   -0.8011    1.3215
H                     0.0001   -1.5743   -1.1933
H                     1.2737   -0.8009    1.3215
H                     2.0836   -1.3109   -0.156
H                     1.3418    0.7475   -1.3243
H                     2.1653    1.1998    0.1669

