%nproc=32
%mem=180GB
%chk=B3LYP6-31Gdp.Frag_746.chk
#P OPT Freq B3LYP/6-31G(d,p)

Frag_746

0 1
C                     1.75761   0.39471   0.85595
C                     0.75788  -0.40488   0.02727
O                     0.47926  -1.6767    0.5998
C                    -0.58929   0.33359  -0.13903
C                    -1.63436  -0.53034  -0.85033
O                    -1.0218    0.7095    1.13779
O                    -0.36018   1.54324  -0.86332
H                     1.91124   1.38218   0.415
H                     1.38486   0.51932   1.87447
H                     2.7247   -0.12095   0.88702
H                     1.15595  -0.53244  -0.99468
H                     1.30884  -2.04671   0.91515
H                    -1.83827  -1.42353  -0.2597
H                    -1.28422  -0.84747  -1.83958
H                    -2.55925   0.04251  -0.97692
H                    -1.76798   1.30701   1.01533
H                    -0.42508   1.35077  -1.80403

