%nproc=32
%mem=180GB
#P OPT=calcfc Freq B3LYP/6-31G**

Frag_399

0 1
C                    -1.1045   -0.7117   -1.183
C                    -0.5823   -0.1603    0.1671
C                    -0.8059   -1.2565    1.2389
C                    -1.4546    1.059     0.5551
C                     0.9536    0.2346    0.1001
C                     1.2569    1.2844   -0.9942
N                     1.7801   -0.9614   -0.1514
O                     1.34      0.8154    1.3275
H                    -1.0556    0.0542   -1.9837
H                    -2.1707   -1.0136   -1.0927
H                    -0.5351   -1.608    -1.504
H                    -0.1992   -2.1608    1.0208
H                    -1.8728   -1.5678    1.2685
H                    -0.5433   -0.8889    2.2531
H                    -2.513     0.752     0.7025
H                    -1.1018    1.52      1.5019
H                    -1.4499    1.8322   -0.2404
H                     2.3371    1.5441   -0.9714
H                     1.034     0.8995   -2.01
H                     0.694     2.224    -0.8241
H                     1.6863   -1.2632   -1.1479
H                     2.7878   -0.7158   -0.0117
H                     1.519     0.0885    1.979

