%nproc=32
%mem=180GB
%chk=B3LYP6-31Gdp.Frag_465.chk
#P OPT Freq B3LYP/6-31G(d,p)

Frag_465

0 1
C                    -1.43234  -0.83386  -0.22094
C                    -0.45944   0.04275  -0.00525
C                    -0.61187   1.42131   0.56591
N                     0.91327  -0.31559  -0.36233
C                     1.47397  -1.29162   0.32065
N                     1.52302   0.37464  -1.30067
H                    -1.23043  -1.8108   -0.64201
H                    -2.46028  -0.58647   0.01731
H                    -0.01298   1.52505   1.47766
H                    -0.26554   2.18902  -0.13192
H                    -1.65857   1.61582   0.80734
H                     2.48922  -1.55991   0.07001
H                     0.92283  -1.73772   1.12961
H                     0.80904   0.96738  -1.72546

