%nproc=32
%mem=180GB
#P OPT Freq B3LYP/6-31G**

Frag_226

0 1
O                     2.3647    0.1789    0.3338
N                     1.0283   -0.1417    0.3091
C                     0.0105    0.6974    0.0827
C                    -1.1292   -0.075     0.1573
N                    -0.758    -1.347     0.425
O                     0.5425   -1.3281    0.5051
H                     0.0914    1.758    -0.1153
H                    -2.1502    0.2576    0.0278

