%nproc=32
%mem=180GB
%chk=B3LYP6-31Gdp.Frag_1162.chk
#P OPT Freq B3LYP/6-31G(d,p)

Frag_1162

0 1
C                     0.10646   1.41074   0.34187
C                    -0.36241   0.20694  -0.47373
N                    -1.30402  -0.58672   0.33489
N                     0.77915  -0.60031  -0.90923
N                     1.41753  -1.35447   0.12642
H                    -0.73319   2.06994   0.58479
H                     0.56283   1.08487   1.28124
H                     0.84297   1.98141  -0.22791
H                    -0.81614   0.57277  -1.40941
H                    -1.96467   0.01444   0.81669
H                    -1.84757  -1.20685  -0.25805
H                     0.46476  -1.27404  -1.60032
H                     2.12661  -0.75754   0.54106
H                     0.72759  -1.5611    0.85179

