%nproc=32
%mem=180GB
%chk=B3LYP6-31Gdp.Frag_654.chk
#P OPT Freq B3LYP/6-31G(d,p)

Frag_654

0 1
C                    -1.5946   -0.60159   0.22385
C                    -0.65108   0.58885   0.11661
O                    -0.12058   0.97057   1.39358
N                     0.39054   0.38275  -0.87856
C                     1.32217  -0.70588  -0.60682
O                     1.14051   1.5918   -0.95624
H                    -2.43731  -0.34064   0.86828
H                    -1.09573  -1.47604   0.65685
H                    -1.97342  -0.87866  -0.76291
H                    -1.19431   1.47563  -0.22013
H                     0.1381    0.1712    1.8651
H                     2.08036  -0.70068  -1.39118
H                     0.79319  -1.66221  -0.64373
H                     1.83473  -0.61429   0.3667
H                     1.36763   1.79918  -0.0314

