%nproc=32
%mem=180GB
%chk=B3LYP6-31Gdp.Frag_608.chk
#P OPT Freq B3LYP/6-31G(d,p)

Frag_608

0 1
C                    -1.83361  -0.20655  -0.62934
C                    -0.57812   0.53938  -0.14632
C                    -0.78643   1.03464   1.29236
C                     0.72239  -0.29696  -0.32224
C                     1.97002   0.48451   0.09619
N                     0.64688  -1.51066   0.47618
O                     0.93882  -0.55458  -1.72195
H                    -2.07708  -1.05864   0.01571
H                    -2.69903   0.4628   -0.60836
H                    -1.74234  -0.56782  -1.6597
H                    -0.44336   1.40872  -0.80154
H                    -0.81818   0.19201   1.98899
H                     0.01351   1.70662   1.61343
H                    -1.72955   1.58518   1.37387
H                     2.01034   1.44507  -0.42345
H                     2.86097  -0.08489  -0.18501
H                     1.98775   0.65282   1.17329
H                     1.48921  -2.05929   0.32972
H                    -0.1329   -2.0908    0.18151
H                     0.2007   -1.08158  -2.04341

