%nproc=32
%mem=180GB
#P OPT Freq B3LYP/6-31G**

Frag_171

0 1
N                     1.8516   -1.4848   -0.1519
C                     0.8351   -0.7035   -0.0773
C                    -0.5377   -1.1393   -0.427
C                    -1.3571    0.1457   -0.3613
C                    -0.5366    1.1556    0.4491
C                     0.9203    0.7127    0.3619
H                     2.796    -1.1554    0.0965
H                    -0.8986   -1.878     0.3207
H                    -0.5672   -1.5776   -1.448
H                    -2.3491   -0.0337    0.1072
H                    -1.5113    0.5398   -1.3903
H                    -0.6674    2.187     0.0557
H                    -0.8686    1.1304    1.5107
H                     1.4196    0.7925    1.3517
H                     1.4709    1.3086   -0.3976

