%nproc=32
%mem=180GB
%chk=B3LYP6-31Gdp.Frag_929.chk
#P OPT Freq B3LYP/6-31G(d,p)

Frag_929

0 1
C                    -1.57411   0.23009   0.06651
N                    -0.25829   0.42066  -0.52409
N                     0.65144  -0.11213   0.17555
N                     1.95836   0.11277  -0.28464
O                     0.5483   -0.7564    1.22979
H                    -1.62496   0.66076   1.07421
H                    -2.29795   0.72126  -0.58398
H                    -1.82025  -0.83509   0.16031
H                     2.50037  -0.70471  -0.02657
H                     1.917     0.2628   -1.28719

