%nproc=32
%mem=180GB
#P OPT Freq B3LYP/6-31G**

Frag_256

0 1
C                    -1.4072   -0.111     0.3621
C                    -0.0212    0.131    -0.1669
N                     0.1749    1.0037   -1.1051
C                     1.1337   -0.572     0.4279
O                     0.9581   -1.3744    1.3828
O                     2.4277   -0.3644   -0.0472
H                    -1.5347    0.4276    1.3242
H                    -1.5692   -1.1969    0.5279
H                    -2.1777    0.2446   -0.3546
H                    -0.6077    1.5444   -1.537
H                     2.6232    0.2674   -0.8141

