%nproc=32
%mem=180GB
%chk=B3LYP6-31Gdp.Frag_588.chk
#P OPT Freq B3LYP/6-31G(d,p)

Frag_588

0 1
C                     1.69887  -0.25091   0.06926
C                     0.43554   0.52397  -0.18028
N                     0.48023   1.72945  -0.5865
C                    -0.85665  -0.20521   0.07675
N                    -0.85015  -1.40813   0.48166
O                    -1.93799   0.57938  -0.1777
H                     1.74388  -0.59246   1.10751
H                     2.55675   0.38443  -0.15229
H                     1.72903  -1.15099  -0.5517
H                    -0.4662    2.099    -0.70245
H                    -1.78921  -1.78857   0.61815
H                    -2.7442    0.08015  -0.00241

