%nproc=32
%mem=180GB
%chk=B3LYP6-31Gdp.Frag_1022.chk
#P OPT Freq B3LYP/6-31G(d,p)

Frag_1022

0 1
C                    -1.39882   0.17143  -1.26753
C                    -0.67129   0.30634  -0.15564
N                    -1.13578   0.83705   1.05385
C                     0.75857  -0.2252   -0.02345
N                     0.87981  -1.40415   0.81856
O                     1.57012   0.7502    0.62247
O                     1.24474  -0.52164  -1.29466
H                    -2.42036   0.53426  -1.32088
H                    -0.98867  -0.32001  -2.13655
H                    -0.42171   1.36554   1.53886
H                    -1.99612   1.36001   0.9683
H                     0.74148  -1.1362    1.78816
H                     0.12985  -2.04725   0.58117
H                     1.71524   1.4425   -0.03273
H                     1.99313  -1.11278  -1.14014

