%nproc=32
%mem=180GB
%chk=B3LYP6-31Gdp.Frag_804.chk
#P OPT Freq B3LYP/6-31G(d,p)

Frag_804

0 1
C                     1.2792   -0.7318   -0.33577
C                     0.06792   0.17063  -0.04704
C                    -0.13564   0.32912   1.46904
C                    -1.19429  -0.30228  -0.75847
N                     0.52059   1.54724  -0.50139
O                    -0.17036   2.05703  -1.34247
H                     1.11609  -1.72408   0.09536
H                     1.43486  -0.84724  -1.41276
H                     2.18967  -0.30999   0.09912
H                    -0.99303   0.97398   1.68468
H                    -0.31876  -0.64854   1.9248
H                     0.75031   0.76898   1.93557
H                    -1.04103  -0.35926  -1.83933
H                    -2.02839   0.38131  -0.57971
H                    -1.47724  -1.2951   -0.39655

