%nproc=32
%mem=180GB
%chk=B3LYP6-31Gdp.Frag_1100.chk
#P OPT Freq B3LYP/6-31G(d,p)

Frag_1100

0 1
N                     1.99558   0.37388  -0.68191
O                     0.73359  -0.19514  -1.0269
C                    -0.19114  -0.19613   0.05101
N                    -0.43478   1.16789   0.47359
N                    -1.29874  -0.96814  -0.48399
O                     0.32009  -0.83343   1.19022
H                     2.32011  -0.18181   0.11356
H                     1.76168   1.28554  -0.2781
H                    -0.85446   1.18656   1.39504
H                    -1.03407   1.64485  -0.18899
H                    -1.32493  -0.86463  -1.49282
H                    -2.17794  -0.64504  -0.09728
H                     0.18491  -1.7744    1.02656

