%nproc=32
%mem=180GB
%chk=B3LYP6-31Gdp.Frag_838.chk
#P OPT Freq B3LYP/6-31G(d,p)

Frag_838

0 1
C                     1.9333   -0.1663   -0.07311
N                     0.80213   0.41805  -0.35259
O                     0.57948   1.13642  -1.36516
C                    -0.35863   0.2573    0.57506
C                    -1.55153  -0.3342   -0.16403
H                     2.75283  -0.02604  -0.76216
H                     2.01766  -0.75683   0.82491
H                    -0.58366   1.26571   0.93209
H                    -0.04904  -0.3603    1.42065
H                    -1.77678   0.27729  -1.03885
H                    -1.34257  -1.35673  -0.4923
H                    -2.42329  -0.35447   0.49548

