%nproc=32
%mem=180GB
#P OPT=calcfc Freq B3LYP/6-31G**

Frag_120

0 1
C                    -1.5022   -0.2036    0.3851
N                    -0.6484   -0.4234   -0.7766
C                     0.751    -0.1087   -0.7841
C                     1.4285    0.473     0.4191
O                     1.4262   -0.3261   -1.8254
H                    -2.5408   -0.5213    0.1543
H                    -1.5107    0.8743    0.6502
H                    -1.1312   -0.7989    1.2456
H                    -1.0762   -0.8276   -1.6402
H                     2.5067    0.6446    0.2142
H                     0.9592    1.4438    0.6819
H                     1.3379   -0.2262    1.2761

