%nproc=128
%mem=128GB
#P OPT Freq B3LYP/6-31G**

Frag_97

0 1
C                     1.9265   -0.1431    0.0613
O                     0.6434   -0.6269   -0.311
C                    -0.4212    0.04      0.3287
C                    -1.6922   -0.7169   -0.022
O                    -0.4876    1.4055   -0.033
H                     2.0396    0.9216   -0.1716
H                     2.6602   -0.7208   -0.5048
H                     2.1114   -0.2874    1.1365
H                    -0.2579    0.0587    1.4171
H                    -1.635    -1.7508    0.3277
H                    -2.557    -0.2298    0.4346
H                    -1.8263   -0.7347   -1.1094
H                    -0.6597    1.4341   -0.9859

