%nproc=32
%mem=180GB
%chk=B3LYP6-31Gdp.Frag_707.chk
#P OPT Freq B3LYP/6-31G(d,p)

Frag_707

0 1
C                     2.30834   0.3395    0.24882
C                     1.12968   0.14081   0.10748
C                    -0.27683  -0.09199  -0.00561
C                    -0.94429   0.21537  -1.1306
N                    -0.85358  -0.70852   1.11485
H                     3.351     0.51371   0.34979
H                    -0.42279   0.61423  -1.98818
H                    -2.01256   0.04989  -1.21552
H                    -0.41946  -0.45528   1.99086
H                    -1.85942  -0.61781   1.15811

