%nproc=128
%mem=128GB
#P OPT Freq B3LYP/6-31G**

Frag_92

0 1
C                     1.9523   -0.0761    0.0732
C                     0.7704   -0.688    -0.0768
C                    -0.538    -0.0284   -0.0193
C                    -1.691    -0.7125    0.0471
O                    -0.5656    1.3435    0.0071
H                     2.0367    0.9836    0.3006
H                     2.885    -0.6246    0.0038
H                     0.739    -1.7597   -0.2571
H                    -1.6851   -1.7941    0.0945
H                    -2.6427   -0.197     0.087
H                     0.2305    1.6741   -0.4305

