%nproc=32
%mem=180GB
%chk=B3LYP6-31Gdp.Frag_985.chk
#P OPT Freq B3LYP/6-31G(d,p)

Frag_985

0 1
C                     0.90839  -0.4369    0.05676
N                    -0.36552   0.31972   0.0001
N                    -1.47442  -0.2872   -0.25075
N                    -0.23184   1.57597   0.21874
H                     0.82236  -1.19585   0.83652
H                     1.06527  -0.91768  -0.91054
H                     1.71218   0.25933   0.27937
H                    -1.25419  -1.27625  -0.37762
H                    -1.18223   1.95886   0.14752

