%nproc=32
%mem=180GB
%chk=B3LYP6-31Gdp.Frag_478.chk
#P OPT Freq B3LYP/6-31G(d,p)

Frag_478

0 1
C                    -1.49642   0.07777  -0.2477
C                    -0.28097  -0.4604   -0.34182
C                     0.95222   0.08495   0.27284
N                     2.01215  -0.57551   0.50597
O                     0.9311    1.38963   0.64492
H                    -1.69185   0.98746   0.31318
H                    -2.36031  -0.38983  -0.70618
H                    -0.1443   -1.39719  -0.8754
H                     1.89086  -1.54436   0.21608
H                     0.18761   1.82748   0.2179

