%nproc=32
%mem=180GB
%chk=B3LYP6-31Gdp.Frag_947.chk
#P OPT Freq B3LYP/6-31G(d,p)

Frag_947

0 1
N                     1.30893  -1.09738  -1.73145
C                     0.73062  -0.52613  -0.9091
C                     0.0564    0.22676   0.14012
N                     0.5138    1.31377   0.62928
N                    -1.14156  -0.31065   0.53251
H                     1.379     1.59178   0.17335
H                    -1.54295   0.09447   1.36527
H                    -1.30435  -1.29272   0.38503

