%nproc=32
%mem=180GB
%chk=B3LYP6-31Gdp.Frag_894.chk
#P OPT Freq B3LYP/6-31G(d,p)

Frag_894

0 1
C                     0.4079   -1.30296   0.38727
C                    -0.20046  -0.03151  -0.21405
C                    -0.4447    1.05491   0.83872
N                    -1.46473  -0.36842  -0.84205
N                     0.74618   0.51489  -1.27975
N                     1.88537   0.86797  -0.97253
H                     0.58091  -2.05122  -0.39302
H                     1.36337  -1.0994    0.87973
H                    -0.27947  -1.7236    1.12445
H                     0.48126   1.34007   1.34681
H                    -1.15125   0.68728   1.58604
H                    -0.86651   1.9517    0.37341
H                    -1.29906  -1.0411   -1.58684
H                    -1.84121   0.45825  -1.29978
H                     2.08223   0.74314   0.05158

