%nproc=32
%mem=180GB
%chk=B3LYP6-31Gdp.Frag_628.chk
#P OPT Freq B3LYP/6-31G(d,p)

Frag_628

0 1
C                    -0.52651   1.36671  -0.11321
C                     0.10602  -0.01755  -0.2858
C                    -0.91254  -1.14647  -0.10112
N                     1.13666  -0.17098   0.75912
N                     2.27245  -0.34829   0.29294
H                     0.21557   2.15698  -0.25906
H                    -0.95019   1.47554   0.89
H                    -1.32725   1.50819  -0.84508
H                     0.58322  -0.09552  -1.27159
H                    -0.44247  -2.12428  -0.24036
H                    -1.72106  -1.04692  -0.83133
H                    -1.34623  -1.11476   0.90322
H                     2.91244  -0.44265   1.10227

