%nproc=32
%mem=180GB
%chk=B3LYP6-31Gdp.Frag_893.chk
#P OPT Freq B3LYP/6-31G(d,p)

Frag_893

0 1
C                     1.27151   0.57574   0.88271
C                     0.68445   0.15904  -0.4741
N                     1.28816  -1.04421  -1.05522
C                    -0.83894  -0.08194  -0.41612
N                    -1.52382   1.16759  -0.05527
N                    -1.14282  -1.14856   0.5329
H                     0.76639   1.46005   1.28249
H                     2.33807   0.80394   0.78111
H                     1.17535  -0.23751   1.61034
H                     0.84589   0.98206  -1.18607
H                     0.99906  -1.83392  -0.48094
H                     2.30023  -0.98837  -0.98507
H                    -1.12364  -0.46579  -1.40765
H                    -2.52864   1.03822  -0.13735
H                    -1.27779   1.90344  -0.71351
H                    -1.16966  -0.75614   1.47041
H                    -2.0638   -1.53363   0.35145

