%nproc=32
%mem=180GB
%chk=B3LYP6-31Gdp.Frag_568.chk
#P OPT Freq B3LYP/6-31G(d,p)

Frag_568

0 1
C                    -1.53753   0.11731   0.25227
C                    -0.11391   0.05855  -0.20384
O                     0.44516   1.21838  -0.68642
N                     0.56121  -1.01574  -0.15247
N                     1.85309  -0.97865  -0.67384
H                    -1.6659    0.84646   1.06297
H                    -2.20468   0.4145   -0.56712
H                    -1.84323  -0.86435   0.61325
H                    -0.1846    1.93968  -0.59923
H                     2.28828  -0.06261  -0.58374
H                     2.40201  -1.67353  -0.18393

