%nproc=32
%mem=180GB
%chk=B3LYP6-31Gdp.Frag_472.chk
#P OPT Freq B3LYP/6-31G(d,p)

Frag_472

0 1
C                     1.94263   0.23359  -0.29887
N                     0.66383   0.57286  -0.90348
C                    -0.54869   0.09252  -0.2509
C                    -0.73722   0.62265   1.1857
C                    -0.59661  -1.44125  -0.28681
O                    -1.57815   0.62972  -1.08316
H                     2.11644  -0.8454   -0.35774
H                     2.73724   0.7184   -0.87338
H                     2.06373   0.53459   0.75643
H                     0.57496   1.57786  -1.0101
H                     0.07222   0.297     1.84549
H                    -0.76255   1.71677   1.17664
H                    -1.67588   0.25988   1.62157
H                    -0.44987  -1.78362  -1.31334
H                     0.16619  -1.89347   0.3539
H                    -1.57187  -1.79099   0.06692
H                    -2.41647   0.4988   -0.62887

