%nproc=32
%mem=180GB
%chk=B3LYP6-31Gdp.Frag_738.chk
#P OPT Freq B3LYP/6-31G(d,p)

Frag_738

0 1
C                    -0.99635  -0.06917  -0.26303
O                     0.31854  -0.63634  -0.37559
C                     1.28121   0.01682   0.28788
O                     1.1334    1.00791   0.94792
H                    -1.31738  -0.05047   0.78137
H                    -1.0081    0.95134  -0.65365
H                    -1.64792  -0.713    -0.85293
H                     2.23651  -0.50709   0.12803

