%nproc=32
%mem=180GB
%chk=B3LYP6-31Gdp.Frag_539.chk
#P OPT Freq B3LYP/6-31G(d,p)

Frag_539

0 1
C                     1.64945   0.73744  -0.51396
C                     0.90412  -0.36316   0.2372
O                     1.15099  -0.27219   1.64803
C                    -0.63849  -0.36031   0.09909
C                    -1.25715   0.9599    0.58781
C                    -1.06873  -0.67481  -1.33385
O                    -1.1299   -1.43921   0.89559
H                     2.73011   0.63037  -0.36623
H                     1.4606    0.68507  -1.58997
H                     1.35814   1.72695  -0.1524
H                     1.24111  -1.34597  -0.12598
H                     2.07693  -0.47466   1.80877
H                    -2.34517   0.85667   0.61113
H                    -0.90846   1.1948    1.59684
H                    -1.00625   1.80067  -0.06672
H                    -2.15285  -0.81517  -1.36015
H                    -0.81167   0.13404  -2.02285
H                    -0.60215  -1.60051  -1.6842
H                    -0.65054  -1.38013   1.73186

