%nproc=32
%mem=180GB
%chk=B3LYP6-31Gdp.Frag_948.chk
#P OPT Freq B3LYP/6-31G(d,p)

Frag_948

0 1
C                     1.68162   0.68807  -0.40109
C                     0.72502  -0.33367   0.2014
O                     1.18886  -1.61052  -0.19496
O                     0.69919  -0.25841   1.61233
C                    -0.76795  -0.15089  -0.25437
C                    -1.54314   0.86798   0.57217
O                    -0.70235   0.22096  -1.61614
O                    -1.45473  -1.38229  -0.1336
H                     1.36496   1.7029   -0.15172
H                     1.72217   0.58503  -1.48475
H                     2.68426   0.52074   0.00644
H                     0.68686  -2.23468   0.34542
H                     1.60896  -0.36203   1.91379
H                    -2.55142   0.97012   0.15704
H                    -1.04917   1.84132   0.54145
H                    -1.62234   0.54261   1.6087
H                    -1.61024   0.34524  -1.91539
H                    -1.06046  -1.95239  -0.80673

