%nproc=32
%mem=180GB
#P OPT Freq B3LYP/6-31G**

Frag_185

0 1
C                    -0.7349    0.6934    0.0285
C                    -0.7451   -0.682    -0.0382
N                     0.5326   -1.1013   -0.0496
N                     1.279    -0.0098    0.0083
N                     0.5488    1.093     0.0567
H                    -1.5916    1.3532    0.0545
H                    -1.6114   -1.3285   -0.0754
H                     2.3226   -0.0179    0.0152

