%nproc=32
%mem=180GB
%chk=B3LYP6-31Gdp.Frag_1045.chk
#P OPT Freq B3LYP/6-31G(d,p)

Frag_1045

0 1
N                     0.81168   1.42646   1.23809
C                     0.74227   0.64004   0.23479
N                     1.6728    0.47062  -0.77148
C                    -0.53617  -0.20524  -0.00166
N                    -0.08191  -1.58234  -0.27327
N                    -1.43886  -0.01382   1.11336
N                    -1.25299   0.19631  -1.21652
H                     1.69895   1.9326    1.26326
H                     2.59311   0.84736  -0.60166
H                     1.6589   -0.45745  -1.17684
H                     0.21329  -2.02699   0.59146
H                    -0.87209  -2.09985  -0.64759
H                    -0.92777   0.30488   1.92876
H                    -1.95745  -0.85901   1.31321
H                    -0.59896   0.35475  -1.97752
H                    -1.72471   1.07149  -1.0163

