%nproc=32
%mem=180GB
%chk=B3LYP6-31Gdp.Frag_945.chk
#P OPT Freq B3LYP/6-31G(d,p)

Frag_945

0 1
C                    -1.53557  -0.6637   -0.9417
C                    -0.89521  -0.0529    0.30786
N                    -1.59358   1.20579   0.59845
N                    -1.17791  -0.94717   1.43784
C                     0.66579   0.18397   0.14237
C                     1.45402  -1.11648  -0.07475
C                     1.00977   1.18517  -0.97067
O                     1.03595   0.7502    1.41351
H                    -2.60185  -0.79382  -0.74716
H                    -1.41913  -0.01738  -1.8163
H                    -1.10574  -1.63984  -1.18382
H                    -1.08709   1.69728   1.33034
H                    -1.57339   1.80882  -0.21767
H                    -0.63623  -0.63794   2.24078
H                    -0.85996  -1.8868    1.22314
H                     1.27588  -1.82598   0.73626
H                     2.52961  -0.90374  -0.09997
H                     1.19837  -1.59542  -1.02435
H                     2.09019   1.37292  -0.98597
H                     0.73483   0.80704  -1.95956
H                     0.50972   2.14255  -0.80862
H                     1.98161   0.92732   1.39979

