%nproc=32
%mem=180GB
#P OPT Freq B3LYP/6-31G**

Frag_248

0 1
O                    -1.5233    1.5016    0.1701
C                    -0.6862    0.5782    0.3493
N                     0.629     0.7002    0.1153
C                     1.1055   -0.5176    0.4442
N                     0.1206   -1.3439    0.8604
N                    -1.0018   -0.6454    0.797
H                     1.156     1.5308   -0.2347
H                     2.1481   -0.7995    0.3828
H                    -1.9478   -1.0044    1.0542

