%nproc=32
%mem=180GB
%chk=B3LYP6-31Gdp.Frag_1116.chk
#P OPT Freq B3LYP/6-31G(d,p)

Frag_1116

0 1
C                    -1.25961  -0.87269  -0.1825
C                    -0.22773   0.23593   0.09366
C                    -0.35022   0.72606   1.54345
C                    -0.43089   1.41983  -0.8634
N                     1.18193  -0.23052  -0.09144
N                     1.37894  -0.72601  -1.39072
O                     1.39221  -1.33399   0.8452
H                    -1.25036  -1.17725  -1.23342
H                    -2.26755  -0.51146   0.0428
H                    -1.06393  -1.74827   0.44164
H                    -0.24766  -0.09963   2.24962
H                     0.42356   1.46912   1.76136
H                    -1.3266    1.19492   1.69779
H                    -0.35039   1.10404  -1.90427
H                    -1.42008   1.8594   -0.70169
H                     0.32301   2.19173  -0.68191
H                     0.97883  -1.66287  -1.47347
H                     2.38096  -0.81814  -1.52427
H                     2.13549  -1.0201    1.37148

