%nproc=32
%mem=180GB
%chk=B3LYP6-31Gdp.Frag_1009.chk
#P OPT Freq B3LYP/6-31G(d,p)

Frag_1009

0 1
N                    -1.23795   1.08594  -0.06429
C                    -0.6577   -0.20176  -0.43598
O                    -1.21561  -1.24669   0.32738
C                     0.87104  -0.25053  -0.30014
O                     1.14064  -0.05189   1.08624
H                    -0.77342   1.42962   0.77329
H                    -1.06089   1.76886  -0.7956
H                    -0.92969  -0.40041  -1.47862
H                    -0.78127  -1.2086    1.18878
H                     1.33581   0.53523  -0.91481
H                     1.23991  -1.22823  -0.6405
H                     2.06902  -0.23175   1.25414

