%nproc=32
%mem=180GB
%chk=B3LYP6-31Gdp.Frag_843.chk
#P OPT Freq B3LYP/6-31G(d,p)

Frag_843

0 1
C                    -0.60418   1.1768    0.62543
C                    -0.15995   0.07916   0.01223
C                    -0.98688  -0.7612   -0.92337
N                     1.1202   -0.48053   0.22034
O                     2.04077   0.42436   0.81424
H                    -1.62429   1.50693   0.47978
H                     0.0348    1.7572    1.2758
H                    -0.54684  -0.78793  -1.92922
H                    -1.99648  -0.35703  -1.00888
H                    -1.0531   -1.79731  -0.57283
H                     1.54311  -0.77235  -0.65772
H                     2.23283   0.01178   1.66409

