%nproc=32
%mem=180GB
%chk=B3LYP6-31Gdp.Frag_1075.chk
#P OPT Freq B3LYP/6-31G(d,p)

Frag_1075

0 1
C                    -1.2612   -0.44879   0.44289
C                    -0.08361  -0.03788  -0.03374
O                     0.19207   1.16361  -0.60148
N                     1.02007  -0.93538   0.04891
N                     2.12765  -0.57208  -0.38976
H                    -1.32521  -1.43983   0.86859
H                    -2.15071   0.1693    0.41972
H                    -0.60161   1.70757  -0.61906
H                     2.08264   0.39358  -0.77638

