%nproc=32
%mem=180GB
%chk=B3LYP6-31Gdp.Frag_904.chk
#P OPT Freq B3LYP/6-31G(d,p)

Frag_904

0 1
C                    -1.94342   0.01304  -0.06267
C                    -0.63213   0.00423  -0.01999
C                     0.63208  -0.00425   0.02077
C                     1.94339  -0.01305   0.06264
H                    -2.543     0.01069   0.84355
H                    -2.48274   0.02307  -1.00594
H                     2.48328  -0.02316   1.00558
H                     2.54244  -0.01067  -0.84393

