%nproc=32
%mem=180GB
%chk=B3LYP6-31Gdp.Frag_727.chk
#P OPT Freq B3LYP/6-31G(d,p)

Frag_727

0 1
O                    -0.16224  -0.75414  -1.42564
C                    -0.44973  -0.06974  -0.47614
O                    -1.68783   0.42086  -0.27325
N                     0.48178   0.31887   0.4835
O                     1.73468  -0.30028   0.30558
H                    -1.66509   1.11667   0.39669
H                     0.18338   0.16125   1.44184
H                     1.56504  -0.89349  -0.45259

