%nproc=32
%mem=180GB
#P OPT=calcfc Freq B3LYP/6-31G**

Frag_413

0 1
N                     1.4434   -0.5567    0.3062
C                     0.6125    0.5198   -0.2208
C                    -0.7732    0.0147   -0.4778
N                    -1.6962   -0.1387    0.5999
O                    -1.1151   -0.3121   -1.6455
H                     2.3774   -0.1503    0.5429
H                     1.6067   -1.2489   -0.4613
H                     0.5667    1.3487    0.5185
H                     1.0558    0.9193   -1.1605
H                    -1.4197    0.1075    1.5762
H                    -2.6584   -0.5032    0.4222

