%nproc=32
%mem=180GB
%chk=B3LYP6-31Gdp.Frag_631.chk
#P OPT Freq B3LYP/6-31G(d,p)

Frag_631

0 1
C                    -0.79657  -0.42125   1.49098
C                    -0.48021   0.04456   0.05585
C                    -0.73017   1.55827  -0.07086
C                    -1.39512  -0.70569  -0.92994
C                     1.00437  -0.28118  -0.30233
N                     1.92975   0.45624   0.54273
O                     1.31193   0.0611   -1.64294
O                     1.17142  -1.6828   -0.22482
H                    -1.86849  -0.31752   1.68846
H                    -0.52493  -1.47026   1.63267
H                    -0.27863   0.17802   2.24868
H                    -1.77101   1.7881    0.17947
H                    -0.08229   2.13365   0.59512
H                    -0.55576   1.90058  -1.09589
H                    -1.15638  -0.4379   -1.96213
H                    -2.44153  -0.44518  -0.7405
H                    -1.28284  -1.78665  -0.82397
H                     1.69734   0.31674   1.52044
H                     2.85765   0.06123   0.41086
H                     1.63373   0.96875  -1.61953
H                     1.75774  -1.91901  -0.95234

