%nproc=32
%mem=180GB
%chk=B3LYP6-31Gdp.Frag_898.chk
#P OPT Freq B3LYP/6-31G(d,p)

Frag_898

0 1
C                    -1.27904  -0.48192  -0.18674
N                    -0.0462   -0.71157  -0.35618
N                     0.72967   0.57125  -0.52252
N                     1.96347   0.40006  -0.69468
O                     0.14215   1.64231  -0.48211
H                    -1.67637   0.53416  -0.17156
H                    -1.9325   -1.34016  -0.05593
H                     2.09873  -0.61403  -0.67169

