%nproc=32
%mem=180GB
%chk=B3LYP6-31Gdp.Frag_1132.chk
#P OPT Freq B3LYP/6-31G(d,p)

Frag_1132

0 1
N                    -1.5309   -0.10931  -0.04494
N                    -0.21051   0.32472  -0.13933
O                     0.30596   0.1388   -1.46793
C                     0.69743  -0.20927   0.81485
O                     0.32395  -0.57483   1.89656
O                     1.97067  -0.20297   0.41577
H                    -1.57029  -0.96604   0.5052
H                    -2.05679   0.6021    0.45121
H                     0.10289   0.9775   -1.9005
H                     1.96778   0.01921  -0.53089

