%nproc=32
%mem=180GB
%chk=B3LYP6-31Gdp.Frag_562.chk
#P OPT Freq B3LYP/6-31G(d,p)

Frag_562

0 1
C                     2.08819  -0.47489   0.4898
C                     0.98884   0.06586  -0.04964
N                     1.03204   1.09613  -0.99824
C                    -0.40677  -0.34153   0.38908
C                    -1.16911   0.83059   1.03286
C                    -1.21692  -0.963    -0.76464
H                     3.08506  -0.18505   0.1727
H                     2.01646  -1.2017    1.28803
H                     0.30351   1.05749  -1.69721
H                     1.93708   1.21923  -1.43114
H                    -0.27289  -1.11868   1.149
H                    -0.61505   1.23446   1.885
H                    -2.15254   0.50281   1.386
H                    -1.31942   1.64624   0.31901
H                    -1.45245  -0.22982  -1.54579
H                    -2.173    -1.34747  -0.39513
H                    -0.67313  -1.79069  -1.22969

