%nproc=32
%mem=180GB
%chk=B3LYP6-31Gdp.Frag_995.chk
#P OPT Freq B3LYP/6-31G(d,p)

Frag_995

0 1
C                     1.6028   -0.52079  -0.2015
C                     0.55956   0.48761   0.21901
O                     0.78649   1.368     1.02323
C                    -0.86167   0.36346  -0.37228
N                    -1.57919  -0.75913   0.24016
O                    -1.54503   1.55498  -0.16061
H                     1.8947   -0.31682  -1.23903
H                     2.48216  -0.44289   0.43877
H                     1.20848  -1.54045  -0.17583
H                    -0.80294   0.15006  -1.44899
H                    -1.50059  -0.72537   1.25315
H                    -1.22209  -1.65401  -0.07888
H                    -1.02269   2.03535   0.50269

