%nproc=32
%mem=180GB
%chk=B3LYP6-31Gdp.Frag_916.chk
#P OPT Freq B3LYP/6-31G(d,p)

Frag_916

0 1
C                    -0.1215    1.53688  -0.42615
C                    -0.23113   0.09967   0.10062
C                    -1.24994   0.03083   1.24632
C                    -0.6505   -0.85245  -1.03709
N                     1.07062  -0.27431   0.69794
N                     2.11439  -0.36553  -0.27531
H                     0.66519   1.60274  -1.18086
H                    -1.06665   1.85842  -0.87531
H                     0.12827   2.22254   0.38896
H                    -2.23941   0.34745   0.90369
H                    -1.3463   -0.9915    1.63251
H                    -0.94353   0.67893   2.07249
H                    -1.62227  -0.56802  -1.45398
H                     0.08213  -0.82897  -1.8487
H                    -0.73383  -1.88428  -0.67389
H                     0.95462  -1.16252   1.1842
H                     2.98561  -0.14054   0.1925
H                     2.20422  -1.30934  -0.64793

