%nproc=32
%mem=180GB
%chk=B3LYP6-31Gdp.Frag_700.chk
#P OPT Freq B3LYP/6-31G(d,p)

Frag_700

0 1
C                     0.20451   1.33099  -0.14187
N                    -0.09166   0.09678   0.57929
C                    -1.5274   -0.06337   0.76024
N                     0.39959  -1.02461  -0.23523
N                     1.74402  -1.34219   0.10249
H                    -0.10164   2.184     0.47097
H                     1.28352   1.4064   -0.3039
H                    -0.29974   1.38522  -1.12074
H                    -2.08002  -0.12741  -0.19416
H                    -1.72943  -0.96967   1.34239
H                    -1.91177   0.79052   1.32403
H                    -0.14456  -1.82242   0.08419
H                     2.34658  -0.74577  -0.45645
H                     1.90811  -1.09866   1.08225

