%nproc=32
%mem=180GB
%chk=B3LYP6-31Gdp.Frag_439.chk
#P OPT Freq B3LYP/6-31G(d,p)

Frag_439

0 1
C                    -0.60265   1.1034   -1.00256
C                    -0.30509   0.04851   0.03097
C                    -1.46837  -0.40686   0.87353
C                     0.93556  -0.44384   0.18522
N                     2.0745   -0.01142  -0.50544
O                     1.27561  -1.47596   1.02227
H                     0.20099   1.19449  -1.73838
H                    -0.76918   2.09624  -0.5581
H                    -1.51922   0.85768  -1.55573
H                    -2.18706  -1.01793   0.30796
H                    -2.0322    0.45546   1.25456
H                    -1.16685  -0.98292   1.75599
H                     2.90989  -0.44862  -0.14202
H                     2.17714   0.99243  -0.53899
H                     0.47693  -1.96074   1.25084

