%nproc=32
%mem=180GB
%chk=B3LYP6-31Gdp.Frag_930.chk
#P OPT Freq B3LYP/6-31G(d,p)

Frag_930

0 1
C                     1.32831  -0.02394  -0.81243
N                     0.82056  -0.63557   0.18499
N                    -0.19708  -0.04546   0.89309
N                    -1.11521   0.76067   0.19217
O                    -0.87723  -1.04184   1.60675
H                     1.00474   0.95431  -1.17199
H                     2.16315  -0.50388  -1.31222
H                    -1.13253   0.49891  -0.79738
H                    -0.81472   1.72633   0.2684
H                    -1.1799   -1.68964   0.94874

