%nproc=32
%mem=180GB
#P OPT=calcfc Freq B3LYP/6-31G**

Frag_361

0 1
C                     1.6825   -0.4236   -0.6884
C                     0.806     0.5338   -0.3848
N                    -0.4849    0.2589    0.1882
N                    -0.9218   -1.0483    0.4728
N                    -1.3341    1.3388    0.4708
H                     2.6396   -0.1575   -1.1179
H                     1.4724   -1.4705   -0.5202
H                     1.0817    1.5632   -0.5797
H                    -0.2435   -1.4785    1.142
H                    -0.9111   -1.5951   -0.4181
H                    -1.5629    1.2972    1.4899
H                    -2.2239    1.1817   -0.0547

