%nproc=32
%mem=180GB
%chk=B3LYP6-31Gdp.Frag_480.chk
#P OPT Freq B3LYP/6-31G(d,p)

Frag_480

0 1
C                    -1.77048  -0.44659   0.11127
N                    -0.52545  -1.09416  -0.21386
C                     0.58341  -0.49704  -0.20236
C                     0.91832   0.94274   0.12444
O                     1.6766   -1.24981  -0.5346
H                    -2.24205  -0.9718    0.95061
H                    -1.7083    0.61942   0.37647
H                    -2.45781  -0.53868  -0.73836
H                     1.4019    1.42169  -0.73481
H                     1.61963   0.98425   0.96593
H                     0.03928   1.52916   0.388
H                     2.46484  -0.69917  -0.49584

