%nproc=32
%mem=180GB
%chk=B3LYP6-31Gdp.Frag_928.chk
#P OPT Freq B3LYP/6-31G(d,p)

Frag_928

0 1
C                     1.51595  -1.01094   0.81151
C                     1.00681  -0.12058  -0.03664
O                     1.74944   0.42084  -1.03842
C                    -0.40164   0.45779   0.0073
N                    -0.90932   0.47294  -1.36749
N                    -1.28     -0.27579   0.91403
H                     0.92239  -1.43762   1.60624
H                     2.54204  -1.34122   0.71032
H                     1.09984   0.76001  -1.67899
H                    -0.28716   1.52233   0.28143
H                    -1.71025   1.08994  -1.45124
H                    -1.22006  -0.4653   -1.60982
H                    -2.15613   0.23074   1.00732
H                    -0.87192  -0.30325   1.84446

