%nproc=32
%mem=180GB
%chk=B3LYP6-31Gdp.Frag_1034.chk
#P OPT Freq B3LYP/6-31G(d,p)

Frag_1034

0 1
C                     1.5709    0.74022   0.27475
C                     0.71697  -0.1215   -0.25588
N                    -0.7134   -0.07733  -0.03087
C                    -1.34436  -1.22234  -0.23263
N                    -1.31701   1.00853   0.38773
H                     1.25814   1.53436   0.94128
H                     2.62853   0.65185   0.06068
H                     1.0232   -0.93822  -0.89665
H                    -2.40883  -1.24329  -0.06235
H                    -0.76913  -2.10008  -0.47209
H                    -0.64501   1.76791   0.28604

