%nproc=32
%mem=180GB
%chk=B3LYP6-31Gdp.Frag_506.chk
#P OPT Freq B3LYP/6-31G(d,p)

Frag_506

0 1
C                    -1.00929   0.69257   1.01101
C                    -0.37203   0.04096   0.02817
N                    -0.93258  -0.90594  -0.82398
C                     1.05986   0.39385  -0.22552
O                     1.68598   1.25667   0.33538
O                     1.61362  -0.4012   -1.17855
H                    -0.48779   1.4607    1.56303
H                    -2.0428    0.48276   1.26098
H                    -1.77112  -1.34705  -0.47696
H                    -0.27708  -1.56171  -1.21988
H                     2.53313  -0.11162  -1.26668

