%nproc=32
%mem=180GB
%chk=B3LYP6-31Gdp.Frag_809.chk
#P OPT Freq B3LYP/6-31G(d,p)

Frag_809

0 1
C                     1.90309  -0.00502  -0.23342
N                     0.81983  -0.34423   0.68336
C                    -0.55081  -0.11565   0.23612
C                    -0.89802   1.37219   0.29965
N                    -0.75393  -0.598    -1.12621
O                    -1.41428  -0.74709   1.18058
H                     1.90342   1.07242  -0.42506
H                     1.86283  -0.51128  -1.20884
H                     2.85443  -0.24859   0.24937
H                     0.90277  -1.30113   1.00786
H                    -0.82797   1.70953   1.33463
H                    -1.91843   1.53567  -0.0579
H                    -0.21577   1.95611  -0.32026
H                    -1.73122  -0.50892  -1.38783
H                    -0.4988   -1.57961  -1.19998
H                    -1.43734  -1.68641   0.96794

