%nproc=32
%mem=180GB
%chk=B3LYP6-31Gdp.Frag_874.chk
#P OPT Freq B3LYP/6-31G(d,p)

Frag_874

0 1
C                    -1.4996    1.21382   0.2713
N                    -0.55955   0.34842  -0.42635
C                    -1.0778   -1.01148  -0.57199
N                     0.71378   0.43417   0.20181
C                     1.77732   0.0949   -0.72977
N                     0.77524  -0.31491   1.42075
H                    -2.44259   1.23538  -0.28432
H                    -1.70681   0.8757    1.29951
H                    -1.08766   2.22453   0.31088
H                    -1.99306  -0.97239  -1.1698
H                    -1.30998  -1.49215   0.3912
H                    -0.35851  -1.63387  -1.11282
H                     1.8023   -0.9774   -0.99913
H                     1.64892   0.67964  -1.64246
H                     2.73934   0.34719  -0.27312
H                     1.39094   0.18566   2.05346
H                     1.18782  -1.2372    1.26084

