%nproc=32
%mem=180GB
%chk=B3LYP6-31Gdp.Frag_444.chk
#P OPT Freq B3LYP/6-31G(d,p)

Frag_444

0 1
C                    -1.8756   -0.18753   0.26644
C                    -0.47408   0.35165   0.14963
N                    -0.10208   1.56302   0.28159
C                     0.60276  -0.67864  -0.16055
C                     2.02638  -0.18963  -0.28801
O                     0.28867  -1.84175  -0.29354
H                    -1.92783  -0.94889   1.0507
H                    -2.17088  -0.68792  -0.66086
H                    -2.585     0.61311   0.48928
H                    -0.9       2.17099   0.48764
H                     2.34126   0.30495   0.63537
H                     2.09841   0.56581  -1.07576
H                     2.67809  -1.03527  -0.50944

