%nproc=32
%mem=180GB
%chk=B3LYP6-31Gdp.Frag_952.chk
#P OPT Freq B3LYP/6-31G(d,p)

Frag_952

0 1
C                    -0.6886   -1.01324   0.36471
C                    -0.10557   0.13559   0.01852
O                    -0.76038   1.32971   0.08802
C                     1.25081   0.18614  -0.44984
N                     2.33827   0.2903   -0.83352
H                    -0.14347  -1.94333   0.29863
H                    -1.71285  -1.02485   0.71498
H                    -0.17811   2.03977  -0.20151

