%nproc=32
%mem=180GB
%chk=B3LYP6-31Gdp.Frag_1019.chk
#P OPT Freq B3LYP/6-31G(d,p)

Frag_1019

0 1
N                     1.29757  -0.04867   1.27117
C                     0.76676  -0.41062  -0.02887
N                     1.43515   0.28473  -1.14082
C                    -0.73952  -0.04456  -0.07366
N                    -0.86211   1.38175   0.10598
N                    -1.55266  -0.67679   0.94839
O                    -1.18139  -0.53705  -1.33989
H                     2.26618  -0.33995   1.3554
H                     1.26708   0.96371   1.35828
H                     0.82568  -1.50751  -0.11422
H                     2.41734   0.026    -1.16612
H                     1.02154  -0.02702  -2.01592
H                    -1.83886   1.65384   0.09211
H                    -0.35681   1.85564  -0.63485
H                    -1.17013  -0.42239   1.85516
H                    -1.45251  -1.68455   0.86047
H                    -2.14341  -0.46667  -1.333

