%nproc=32
%mem=180GB
#P OPT=calcfc Freq B3LYP/6-31G**

Frag_403

0 1
C                     0.1318    1.1383   -0.0126
C                    -0.1886   -0.1573    0.0894
N                    -1.5662   -0.5383    0.1046
N                     0.8057   -1.1857    0.2445
N                     2.0347   -1.0614   -0.0696
H                    -0.6432    1.8876   -0.1137
H                     1.1523    1.4883    0.0364
H                    -1.8285   -1.5439    0.2047
H                    -2.3294    0.1697    0.0143
H                     2.4313   -0.1973   -0.4981

