%nproc=32
%mem=180GB
%chk=B3LYP6-31Gdp.Frag_622.chk
#P OPT Freq B3LYP/6-31G(d,p)

Frag_622

0 1
C                    -0.36399   1.10889   0.98458
C                    -0.25944  -0.20227   0.20542
C                    -1.53418  -0.50119  -0.58459
N                     0.85965  -0.13022  -0.74277
N                     2.11444  -0.13125  -0.05763
H                     0.58588   1.32829   1.47631
H                    -1.14791   1.04573   1.74623
H                    -0.60074   1.93584   0.30665
H                    -0.10126  -1.02141   0.93253
H                    -1.4664   -1.46084  -1.11102
H                    -1.71552   0.28208  -1.32803
H                    -2.39902  -0.54951   0.08298
H                     0.79504  -0.92472  -1.3776
H                     2.43433  -1.08123   0.13491
H                     2.79921   0.30182  -0.66788

