%nproc=32
%mem=180GB
#P OPT Freq B3LYP/6-31G**

Frag_173

0 1
N                     2.3738   -0.418    -0.2115
C                     1.1067   -0.1648   -0.1031
C                     0.1907   -1.1977    0.154
C                    -1.1676   -0.8965    0.2659
C                    -1.6003    0.4218    0.122
C                    -0.663     1.4251   -0.1331
N                     0.6592    1.117    -0.2398
H                     2.7637   -1.3831   -0.1147
H                     0.5231   -2.2227    0.2663
H                    -1.8835   -1.6837    0.4638
H                    -2.6516    0.6646    0.2073
H                    -0.9908    2.4508   -0.246
H                     1.3396    1.8874   -0.4312

