%nproc=32
%mem=180GB
%chk=B3LYP6-31Gdp.Frag_691.chk
#P OPT Freq B3LYP/6-31G(d,p)

Frag_691

0 1
C                    -1.15873  -0.5275    0.84187
C                    -0.3095    0.08874  -0.28524
C                     0.46285  -0.99313  -1.06264
C                     0.62361   1.17265   0.24425
N                     0.62373   2.40285  -0.05639
O                     1.5581    0.75737   1.14155
H                    -1.71737   0.24089   1.38343
H                    -1.87287  -1.24621   0.42867
H                    -0.54238  -1.06699   1.57086
H                    -0.98878   0.58673  -0.98535
H                     1.14819  -1.55242  -0.41468
H                     1.05401  -0.55489  -1.87151
H                    -0.23304  -1.71708  -1.49728
H                    -0.11316   2.59727  -0.73134
H                     1.46542  -0.18829   1.29388

