%nproc=32
%mem=180GB
%chk=B3LYP6-31Gdp.Frag_850.chk
#P OPT Freq B3LYP/6-31G(d,p)

Frag_850

0 1
C                     1.98617   0.54729  -0.34192
N                     0.98519  -0.37162  -0.82042
N                    -0.26709  -0.21     -0.09195
C                    -1.15296  -1.2285   -0.71781
C                    -0.89978   1.14294  -0.26914
C                    -0.15771  -0.51433   1.37683
H                     1.78176   1.63557  -0.47122
H                     2.3202    0.43111   0.71528
H                     2.87333   0.34311  -0.95191
H                    -0.66932  -2.19539  -0.59004
H                    -2.14427  -1.21079  -0.25643
H                    -1.20201  -0.99979  -1.781
H                    -1.8915    1.17738   0.19168
H                    -0.95784   1.3257   -1.34141
H                    -0.25582   1.89072   0.19173
H                    -1.14152  -0.50377   1.85541
H                     0.4828    0.23463   1.84059
H                     0.31029  -1.49435   1.46153

