%nproc=32
%mem=180GB
#P OPT=calcfc Freq B3LYP/6-31G**

Frag_372

0 1
C                     1.6723    0.1039    0.2439
N                     0.4168    0.3772    0.1091
O                    -0.5254   -0.6267    0.1477
N                    -1.8647   -0.335     0.0039
H                     2.0018   -0.9172    0.389
H                     2.4026    0.9008    0.2118
H                    -2.1203    0.345     0.7555
H                    -1.9831    0.1521   -0.9134

