%nproc=32
%mem=180GB
#P OPT=calcfc Freq B3LYP/6-31G**

Frag_163

0 1
C                     1.9381   -0.4824    0.2357
C                     1.8245    0.8037   -0.3843
C                     0.5613    1.383    -0.6656
C                    -0.5295    0.6195   -0.2995
C                    -0.4192   -0.6408    0.3082
C                     0.7924   -1.2361    0.5971
C                    -1.8494   -0.6802    0.3248
N                    -1.9916    0.5893   -0.2873
H                     2.9211   -0.8893    0.4334
H                     2.7237    1.3467   -0.6445
H                     0.4569    2.3528   -1.1332
H                     0.8605   -2.2085    1.0658
H                    -2.2596   -0.6807    1.3586
H                    -2.2568   -1.4898   -0.32
H                    -2.7723    1.2127   -0.5891

