%nproc=32
%mem=180GB
#P OPT Freq B3LYP/6-31G**

Frag_227

0 1
N                     2.852    -0.3262    0.5984
C                     1.6272   -0.1449    0.2171
N                     0.7608   -1.2847    0.0653
C                    -0.4471   -1.2689   -0.7523
C                    -1.6      -0.5472   -0.0419
C                    -1.211     0.7989    0.5913
C                    -0.2199    1.5958   -0.2658
N                     1.1645    1.203     0.0075
H                     3.2384   -1.2792    0.7814
H                     1.0915   -2.2132    0.4137
H                    -0.2289   -0.7989   -1.735
H                    -0.763    -2.3143   -0.9608
H                    -2.0097   -1.2078    0.753
H                    -2.4119   -0.3786   -0.7826
H                    -2.1368    1.3992    0.7281
H                    -0.7822    0.6312    1.6039
H                    -0.3349    2.6758   -0.0276
H                    -0.4419    1.4839   -1.3483
H                     1.8528    1.9762    0.1544

