%nproc=32
%mem=180GB
%chk=B3LYP6-31Gdp.Frag_1110.chk
#P OPT Freq B3LYP/6-31G(d,p)

Frag_1110

0 1
C                     1.88256   0.23974  -0.40967
N                     0.85971  -0.51987  -0.48273
N                    -0.1556   -0.38957   0.40963
C                    -1.45607  -0.63647  -0.20007
O                    -0.1802    0.81455   1.15278
H                     2.68755   0.04927  -1.11139
H                     1.99747   1.02785   0.33162
H                    -2.20604  -0.67602   0.5905
H                    -1.40843  -1.59282  -0.72182
H                    -1.72594   0.15093  -0.92292
H                    -0.29511   1.5325    0.50067

