%nproc=32
%mem=180GB
%chk=B3LYP6-31Gdp.Frag_1086.chk
#P OPT Freq B3LYP/6-31G(d,p)

Frag_1086

0 1
C                     2.02776  -0.18838   0.12804
C                     0.8405   -0.00154   0.13888
C                    -0.58688   0.15081   0.1578
N                    -1.44492  -0.78317   0.25286
O                    -0.97562   1.43848   0.06126
H                     3.07862  -0.34623   0.11782
H                    -0.99478  -1.69304   0.31722
H                    -1.94458   1.42296   0.08381

