%nproc=32
%mem=180GB
%chk=B3LYP6-31Gdp.Frag_796.chk
#P OPT Freq B3LYP/6-31G(d,p)

Frag_796

0 1
N                     1.86887  -0.44477  -0.22362
C                     0.80991   0.56872  -0.32091
C                    -0.56437  -0.01443   0.09723
N                    -1.63503   0.97346  -0.00308
N                    -0.90208  -1.07393  -0.85339
N                    -0.54505  -0.51611   1.47844
H                     1.90952  -0.98316  -1.08324
H                     2.7769   -0.00403  -0.12652
H                     0.71348   1.00813  -1.32544
H                     1.05014   1.38005   0.37621
H                    -1.77685   1.18424  -0.98646
H                    -1.35712   1.84068   0.44909
H                    -0.23488  -1.83097  -0.72345
H                    -1.79491  -1.45625  -0.54747
H                     0.38909  -0.87786   1.66249
H                    -0.70743   0.24644   2.13011

