%nproc=32
%mem=180GB
%chk=B3LYP6-31Gdp.Frag_1151.chk
#P OPT Freq B3LYP/6-31G(d,p)

Frag_1151

0 1
C                    -1.29499  -0.28133  -0.27932
C                     0.14235   0.03792   0.02095
N                     0.7385    1.15532   0.11751
O                     0.84063  -1.09884   0.21784
O                     2.21458  -0.82238   0.53163
H                    -1.82538   0.61835  -0.59451
H                    -1.78259  -0.68954   0.61095
H                    -1.3604   -1.03508  -1.06818
H                     0.13001   1.94862  -0.04779
H                     2.19728   0.16695   0.49092

