%nproc=32
%mem=180GB
#P OPT=calcfc Freq B3LYP/6-31G**

Frag_336

0 1
C                     1.5298    0.0306    0.3154
C                     0.5253    0.8517    0.0121
C                    -0.839     0.3957   -0.3222
N                    -1.2797   -0.9452   -0.0868
O                    -1.6468    1.2259   -0.8168
H                     1.4187   -1.0436    0.3256
H                     2.5064    0.4407    0.5383
H                     0.7279    1.9155   -0.0217
H                    -2.2382   -1.2344   -0.3836
H                    -0.7044   -1.637     0.4397

