%nproc=32
%mem=180GB
%chk=B3LYP6-31Gdp.Frag_657.chk
#P OPT Freq B3LYP/6-31G(d,p)

Frag_657

0 1
C                    -1.34831  -0.79803  -0.28054
C                    -0.37917   0.1548    0.41829
O                     0.14799  -0.53545   1.53811
O                    -1.01891   1.32326   0.83605
C                     0.76873   0.58312  -0.53968
N                     1.75909  -0.32477  -0.68126
O                     0.72005   1.66164  -1.1107
H                    -0.85959  -1.74082  -0.53881
H                    -2.18144  -0.99956   0.39666
H                    -1.73236  -0.33326  -1.19187
H                     0.43045   0.14716   2.15917
H                    -0.69714   2.01372   0.22963
H                     1.82061  -1.07243  -0.00938
H                     2.5701   -0.0793   -1.22567

