%nproc=32
%mem=180GB
%chk=B3LYP6-31Gdp.Frag_774.chk
#P OPT Freq B3LYP/6-31G(d,p)

Frag_774

0 1
C                    -1.24637  -0.41443  -0.65281
N                    -0.08751   0.32002  -0.19515
O                    -0.35597   1.14388   0.89739
N                     1.08894  -0.27829  -0.22386
N                     1.88359   0.17019   0.65675
H                    -1.65596  -1.04524   0.1455
H                    -0.92803  -1.0319   -1.49279
H                    -2.00889   0.29576  -0.97823
H                     0.53519   1.14476   1.32843
H                     2.7749   -0.30454   0.51477

