%nproc=32
%mem=180GB
%chk=B3LYP6-31Gdp.Frag_517.chk
#P OPT Freq B3LYP/6-31G(d,p)

Frag_517

0 1
C                    -0.78083  -1.52474   0.04325
C                    -0.1148   -0.18083   0.01874
N                     0.87991   0.05358   0.96244
N                    -0.44252   0.66579  -0.88701
N                     0.26345   1.8992   -0.78144
H                    -0.04547  -2.3303   -0.06651
H                    -1.4991   -1.58684  -0.77399
H                    -1.30501  -1.68749   0.99335
H                     0.83499  -0.53136   1.78408
H                     0.97452   1.03838   1.18691
H                    -0.03002   2.45316  -1.57854
H                     1.26497   1.73145  -0.90128

