%nproc=32
%mem=180GB
%chk=B3LYP6-31Gdp.Frag_793.chk
#P OPT Freq B3LYP/6-31G(d,p)

Frag_793

0 1
C                    -0.92681  -0.50342  -0.1207
N                     0.21292   0.27534   0.36023
O                     1.31817  -0.62693   0.25645
O                     0.40812   1.26641  -0.65275
H                    -0.73824  -0.89613  -1.12724
H                    -1.08883  -1.32746   0.57554
H                    -1.79948   0.15103  -0.13444
H                     1.87994  -0.3613    0.99382
H                     0.73411   2.02256  -0.15092

