%nproc=32
%mem=180GB
#P OPT=calcfc Freq B3LYP/6-31G**

Frag_342

0 1
C                     1.4322    0.3332   -0.0073
C                     0.4834   -0.5446    0.3169
C                    -0.9464   -0.3146    0.0507
N                    -1.3633    0.769    -0.5209
H                     1.1952    1.273    -0.4896
H                     2.4685    0.1117    0.2122
H                     0.7716   -1.4708    0.798
H                    -1.6606   -1.0745    0.3429
H                    -2.3806    0.9176   -0.7029

