%nproc=32
%mem=180GB
#P OPT=calcfc Freq B3LYP/6-31G**

Frag_308

0 1
C                    -1.6873   -0.7937    0.0092
N                    -0.24     -0.9583    0.076
C                     0.6289    0.0094    0.0219
N                     0.2239    1.3782   -0.1136
N                     2.0195   -0.3032    0.0997
H                    -2.0406   -0.1681    0.8563
H                    -1.9752   -0.3283   -0.9573
H                    -2.1692   -1.7904    0.0799
H                     0.9449    2.1321   -0.1542
H                    -0.7783    1.6616   -0.1748
H                     2.3364   -1.2935    0.1986
H                     2.7369    0.4542    0.0587

