%nproc=32
%mem=180GB
#P OPT Freq B3LYP/6-31G**

Frag_274

0 1
N                     2.0696    0.0405   -0.6713
C                     1.1242   -0.4143    0.2957
O                     1.5236   -1.0162    1.3277
C                    -0.3459   -0.219     0.0674
N                    -1.0654   -1.2154   -0.7172
C                    -1.1565    0.4269    1.1776
C                    -0.8476    1.2048   -0.0984
H                     1.7495    0.5188   -1.5424
H                     3.0922   -0.1051   -0.5184
H                    -0.6045   -1.2766   -1.6536
H                    -0.937    -2.1416   -0.2498
H                    -2.2137    0.0937    1.2529
H                    -0.5773    0.773     2.0603
H                    -1.7235    1.3272   -0.7708
H                    -0.0875    2.0034    0.0404

