%nproc=32
%mem=180GB
#P OPT Freq B3LYP/6-31G**

Frag_267

0 1
N                     1.361     0.1028   -0.0644
C                     0.0423   -0.1318    0.5282
C                    -0.8964    0.8536    0.1926
C                    -0.9616   -0.4797   -0.3873
H                     1.8972   -0.7912    0.0108
H                     1.2974    0.3304   -1.0859
H                    -0.0193   -0.5421    1.5577
H                    -1.2856    1.8609    0.2902
H                    -1.435    -1.2029   -1.0419

