%nproc=128
%mem=128GB
#P OPT Freq B3LYP/6-31G**

Frag_17

0 1
C                    -1.0224    1.2799    0.1436
C                    -0.3569    0.       -0.3996
C                    -1.0229   -1.2796    0.1437
C                     1.0836   -0.0004   -0.0967
N                     2.2176   -0.0001    0.1532
H                    -2.0813    1.2881   -0.1311
H                    -0.9496    1.3213    1.2343
H                    -0.5517    2.1774   -0.2654
H                    -0.4438    0.       -1.4942
H                    -2.0818   -1.2874   -0.1311
H                    -0.5525   -2.1773   -0.2652
H                    -0.9502   -1.321     1.2343

