%nproc=32
%mem=180GB
%chk=B3LYP6-31Gdp.Frag_706.chk
#P OPT Freq B3LYP/6-31G(d,p)

Frag_706

0 1
C                     2.34238   0.14008  -0.51598
C                     1.19809   0.33931  -0.20197
C                    -0.18487   0.48826   0.16621
C                    -0.97065  -0.80552   0.21624
N                    -0.63515   1.6574    0.41588
H                     3.35894  -0.00131  -0.79035
H                    -2.00948  -0.61913   0.50097
H                    -0.95074  -1.30267  -0.7593
H                    -0.52125  -1.49771   0.93615
H                    -1.62728   1.60131   0.66145

