%nproc=32
%mem=180GB
%chk=B3LYP6-31Gdp.Frag_436.chk
#P OPT Freq B3LYP/6-31G(d,p)

Frag_436

0 1
C                     1.96886  -0.20438  -0.3543
N                     0.95116   0.70149   0.15598
C                    -0.262     0.31772   0.16591
C                    -0.74951  -1.03533  -0.32021
C                    -1.31225   1.26011   0.69565
H                     2.94686   0.27926  -0.29103
H                     1.79555  -0.47769  -1.40537
H                     2.01885  -1.14172   0.21875
H                    -1.83119  -1.14113  -0.2147
H                    -0.26922  -1.84655   0.23947
H                    -0.49124  -1.18655  -1.37491
H                    -2.0677    1.46943  -0.07231
H                    -0.85238   2.19597   1.01503
H                    -1.84568   0.80937   1.54214

