%nproc=128
%mem=128GB
#P OPT Freq B3LYP/6-31G**

Frag_32

0 1
C                    -1.2717    1.277     0.024
C                    -0.5965    0.0006   -0.472
C                    -1.2723   -1.2766    0.0212
N                     0.8479   -0.0002    0.0152
O                     1.7326    0.0014   -0.8353
O                     1.0289   -0.0023    1.2304
H                    -0.7492    2.168    -0.3355
H                    -2.2992    1.3098   -0.349
H                    -1.2927    1.2969    1.1161
H                    -0.4995    0.0018   -1.5587
H                    -2.2999   -1.308    -0.3519
H                    -1.2933   -1.2989    1.1131
H                    -0.7504   -2.167    -0.3404

