%nproc=32
%mem=180GB
%chk=B3LYP6-31Gdp.Frag_1131.chk
#P OPT Freq B3LYP/6-31G(d,p)

Frag_1131

0 1
C                     1.5114   -0.71797  -0.10682
N                     0.62405   0.35113   0.36015
O                     1.22916   1.53873  -0.1632
N                    -0.6496    0.23487  -0.40655
C                    -1.44431  -0.82032   0.22863
O                    -1.35877   1.43307  -0.07212
H                     2.49742  -0.52721   0.318
H                     1.15088  -1.67747   0.267
H                     1.57678  -0.74284  -1.20205
H                     0.97844   2.19081   0.50076
H                    -1.5148   -0.67839   1.31459
H                    -0.99958  -1.79179   0.00771
H                    -2.4402   -0.7847   -0.21413
H                    -1.16086   1.99197  -0.83197

