%nproc=32
%mem=180GB
#P OPT=calcfc Freq B3LYP/6-31G**

Frag_394

0 1
C                    -1.4419   -0.5608   -0.3177
C                    -0.0996    0.1574   -0.0723
N                     0.0241    1.2789   -1.0125
N                    -0.0398    0.6587    1.3084
C                     1.0575   -0.8378   -0.314
O                     2.3032   -0.2297   -0.0941
H                    -2.2924    0.1307   -0.1362
H                    -1.5508   -1.4327    0.3626
H                    -1.5027   -0.9201   -1.3676
H                     0.8856    1.8262   -0.7822
H                    -0.782     1.9326   -0.8779
H                    -0.8342    1.3198    1.4719
H                    -0.1656   -0.1396    1.9734
H                     0.946    -1.7339    0.3402
H                     1.0258   -1.1938   -1.3665
H                     2.4671   -0.256     0.8846

