%nproc=32
%mem=180GB
%chk=B3LYP6-31Gdp.Frag_900.chk
#P OPT Freq B3LYP/6-31G(d,p)

Frag_900

0 1
C                     1.54854   0.14445  -1.33874
C                     0.89827   0.11431  -0.17627
O                     1.50513   0.14981   1.0498
C                    -0.62442   0.08162  -0.01179
C                    -1.04878  -1.06713   0.91312
N                    -1.1297    1.33959   0.53661
O                    -1.2498   -0.03151  -1.27624
H                     2.63199   0.1965   -1.38769
H                     1.0026    0.15079  -2.27041
H                     2.45749   0.22937   0.92593
H                    -0.72203  -2.02926   0.50377
H                    -0.60613  -0.96036   1.90573
H                    -2.13706  -1.05757   0.9972
H                    -0.89881   2.08248  -0.11937
H                    -0.62322   1.54292   1.39383
H                    -1.00398  -0.88599  -1.64558

