%nproc=32
%mem=180GB
%chk=B3LYP6-31Gdp.Frag_870.chk
#P OPT Freq B3LYP/6-31G(d,p)

Frag_870

0 1
C                    -1.55421   1.03239  -0.19005
C                    -0.69014  -0.21755   0.04187
N                    -0.84992  -0.77467   1.40376
N                    -1.09148  -1.22988  -0.94146
C                     0.84907   0.05879  -0.18096
C                     1.41751   1.05422   0.84103
N                     0.99634   0.62893  -1.5146
N                     1.6482   -1.17784  -0.0569
H                    -2.61444   0.77754  -0.06601
H                    -1.31953   1.81171   0.53876
H                    -1.40031   1.44442  -1.18826
H                    -0.68384  -0.05221   2.10009
H                    -1.8196   -1.05704   1.52541
H                    -0.82844  -2.14732  -0.5947
H                    -2.10032  -1.23281  -1.05366
H                     1.39172   0.64693   1.85633
H                     2.46707   1.24275   0.59982
H                     0.88448   2.00684   0.81849
H                     0.52742   0.00971  -2.17211
H                     1.98412   0.63157  -1.75327
H                     1.38803  -1.65362   0.80536
H                     1.39836  -1.80296  -0.81881

