%nproc=32
%mem=180GB
#P OPT Freq B3LYP/6-31G**

Frag_135

0 1
C                    -0.3146    0.6863   -0.5221
N                     0.9693    0.8805   -0.8752
N                     1.575    -0.2731   -0.6294
N                     0.7039   -1.1447   -0.1449
N                    -0.4801   -0.5655   -0.0704
H                    -1.0966    1.4305   -0.5927
H                    -1.3568   -1.014     0.2753

