%nproc=32
%mem=180GB
#P OPT=calcfc Freq B3LYP/6-31G**

Frag_286

0 1
C                     0.9728    1.2256   -0.4932
C                     0.1912    0.4546    0.2681
N                    -0.1986    0.9155    1.5679
C                    -0.2686   -0.8705   -0.2189
N                    -0.4154   -1.861     0.6046
N                    -0.5612   -1.0753   -1.6042
H                     1.3127    0.8997   -1.4678
H                     1.306     2.1932   -0.1398
H                    -0.8895    0.384     2.1423
H                     0.1567    1.8216    1.9479
H                    -0.2054   -1.7848    1.6246
H                    -0.5564   -0.2825   -2.2832
H                    -0.8443   -2.0199   -1.9483

