%nproc=128
%mem=128GB
#P OPT Freq B3LYP/6-31G**

Frag_26

0 1
N                     0.        1.3267   -0.222
C                     0.       -0.0383    0.3551
N                    -1.188    -0.7657   -0.0589
N                     1.188    -0.7658   -0.0589
H                     0.8145    1.8451    0.1071
H                    -0.8145    1.8451    0.1071
H                     0.       -0.0356    1.4567
H                    -1.2921   -0.6591   -1.0679
H                    -2.0121   -0.3364    0.3561
H                     2.0121   -0.3364    0.356
H                     1.2921   -0.6592   -1.0679

