%nproc=32
%mem=180GB
%chk=B3LYP6-31Gdp.Frag_538.chk
#P OPT Freq B3LYP/6-31G(d,p)

Frag_538

0 1
C                    -0.68275  -0.10149   1.65569
C                    -0.27255   0.02267   0.17862
C                    -0.83541   1.32704  -0.41081
C                    -0.82251  -1.1818   -0.60719
C                     1.27217   0.03765   0.10774
N                     1.77594   0.12038  -1.26823
H                    -1.77299  -0.09722   1.76109
H                    -0.28901   0.73285   2.24751
H                    -0.3093   -1.03173   2.09898
H                    -0.52556   2.19218   0.18674
H                    -0.47074   1.47459  -1.43009
H                    -1.93068   1.30998  -0.42798
H                    -0.40764  -2.12559  -0.23291
H                    -1.91242  -1.2411   -0.516
H                    -0.58788  -1.10293  -1.67348
H                     1.65358  -0.84009   0.65922
H                     1.63392   0.92316   0.64456
H                     2.75894   0.37145  -1.25954
H                     1.72499  -0.79009  -1.71391

