%nproc=32
%mem=180GB
%chk=B3LYP6-31Gdp.Frag_763.chk
#P OPT Freq B3LYP/6-31G(d,p)

Frag_763

0 1
N                     1.27469  -0.21361  -0.75051
N                     0.3192   -0.9449   -0.05395
C                    -0.74656  -0.34459   0.27093
O                    -0.95425   0.98627   0.02857
H                     2.18097  -0.6176   -0.55386
H                     1.26975   0.77678  -0.51527
H                    -1.54083  -0.89331   0.76758
H                    -1.80297   1.25096   0.39421

