%nproc=32
%mem=180GB
#P OPT=calcfc Freq B3LYP/6-31G**

Frag_401

0 1
C                    -1.2894   -0.1683   -0.5422
C                     0.0569   -0.1461    0.2028
C                     0.907     1.0385   -0.2891
N                     0.7742   -1.3943   -0.0701
O                    -0.1629   -0.0371    1.5902
H                    -1.127    -0.3127   -1.6321
H                    -1.9222   -1.0001   -0.1654
H                    -1.8389    0.7852   -0.3882
H                     0.3695    1.9986   -0.1337
H                     1.8655    1.081     0.2711
H                     1.1341    0.9296   -1.3715
H                     1.6707   -1.3929    0.4699
H                     0.2115   -2.1946    0.3017
H                    -0.6491    0.8131    1.7565

