%nproc=32
%mem=180GB
%chk=B3LYP6-31Gdp.Frag_794.chk
#P OPT Freq B3LYP/6-31G(d,p)

Frag_794

0 1
C                     1.43223   1.43014  -0.86847
C                     0.97638   0.26046  -0.40783
N                     1.75672  -0.90948  -0.42235
C                    -0.45238   0.05999   0.10873
C                    -1.08963  -1.18597  -0.55159
C                    -0.42473  -0.11217   1.64198
N                    -1.23589   1.27492  -0.1658
H                     0.7992    2.30325  -0.89704
H                     2.45497   1.53338  -1.21783
H                     1.60957  -1.52107   0.36924
H                     2.74412  -0.72256  -0.53604
H                    -0.54287  -2.10871  -0.33972
H                    -1.11971  -1.06631  -1.63928
H                    -2.11642  -1.30893  -0.18941
H                    -0.01246   0.78396   2.11103
H                    -1.43939  -0.27088   2.02498
H                     0.17302  -0.9764    1.94707
H                    -2.1744    1.14888   0.20387
H                    -1.33794   1.38758  -1.17133

