%nproc=32
%mem=180GB
%chk=B3LYP6-31Gdp.Frag_861.chk
#P OPT Freq B3LYP/6-31G(d,p)

Frag_861

0 1
C                    -1.30608  -0.87585  -0.27037
C                    -0.45209   0.36156  -0.3487
N                    -0.84081   1.58129  -0.35475
N                     0.91873   0.14449  -0.48724
N                     1.44954  -0.9054    0.26305
O                     1.67496   1.33762  -0.33584
H                    -2.34381  -0.62444  -0.50004
H                    -1.26103  -1.30996   0.73268
H                    -0.95336  -1.64008  -0.96533
H                    -1.85266   1.66308  -0.33941
H                     1.69143  -0.55495   1.19319
H                     2.31729  -1.18484  -0.18459
H                     0.95789   2.00757  -0.25805

