%nproc=128
%mem=128GB
#P OPT=calcfc Freq B3LYP/6-31G**

Frag_109

0 1
C                    -2.0194   -0.0674    0.
C                    -0.6678   -0.7376    0.
C                     0.4927   -0.0502    0.
N                     1.7617   -0.5775    0.
O                     0.5675    1.3184    0.
H                    -2.815    -0.8169    0.
H                    -2.1971    0.563     0.8858
H                    -2.1971    0.563    -0.8859
H                    -0.6203   -1.8208    0.
H                     1.906    -1.5698   -0.0001
H                     2.552     0.0409    0.
H                    -0.3329    1.6669    0.0001

