%nproc=32
%mem=180GB
%chk=B3LYP6-31Gdp.Frag_456.chk
#P OPT Freq B3LYP/6-31G(d,p)

Frag_456

0 1
C                    -1.18958  -1.00156  -0.15288
N                    -0.07165  -0.10293   0.09058
C                    -0.06631   1.16586  -0.61259
C                     0.98528  -0.56544   0.84374
O                     0.99625  -1.6217    1.42615
O                     2.06334   0.26281   0.92226
H                    -2.13578  -0.51937   0.11901
H                    -1.04704  -1.88964   0.45988
H                    -1.2422   -1.29726  -1.20899
H                     0.51997   1.14458  -1.54386
H                    -1.09361   1.42592  -0.87841
H                     0.30341   1.9781    0.02435
H                     1.97771   1.02073   0.33578

