%nproc=32
%mem=180GB
#P OPT=calcfc Freq B3LYP/6-31G**

Frag_215

0 1
O                     2.3307    0.4575   -0.0178
C                     1.0985    0.1997   -0.0085
C                     0.5424   -1.0617   -0.0123
C                    -0.821    -0.8197    0.0016
N                    -1.032     0.5122    0.0129
N                     0.1348    1.1335    0.0067
H                     1.0497   -2.0173   -0.0236
H                    -1.6047   -1.5657    0.0035
H                    -1.9596    0.9914    0.0246
H                     0.2614    2.1702    0.0129

