%nproc=32
%mem=180GB
%chk=B3LYP6-31Gdp.Frag_599.chk
#P OPT Freq B3LYP/6-31G(d,p)

Frag_599

0 1
C                    -0.7151   -1.3197   -0.22626
C                    -0.30593   0.07054   0.27029
C                    -0.8662    1.17097  -0.62978
O                    -0.84143   0.32042   1.57386
C                     1.22502   0.1846    0.36994
O                     1.79528  -0.04247  -0.91025
H                    -0.34745  -2.09773   0.45506
H                    -1.80459  -1.39804  -0.28
H                    -0.29151  -1.519    -1.21338
H                    -1.95032   1.06909  -0.72898
H                    -0.40777   1.11909  -1.61958
H                    -0.65404   2.1525   -0.19546
H                    -0.63877  -0.44216   2.12651
H                     1.47291   1.18375   0.75653
H                     1.5869   -0.55672   1.10337
H                     2.74319   0.10488  -0.85165

