%nproc=32
%mem=180GB
%chk=B3LYP6-31Gdp.Frag_1064.chk
#P OPT Freq B3LYP/6-31G(d,p)

Frag_1064

0 1
N                     1.30872   0.12686   0.04737
N                     0.4212   -0.37486  -1.00008
C                    -0.82639  -0.41567  -0.37246
O                    -1.1942    0.91772   0.15077
H                     2.18449   0.39935  -0.39139
H                     0.86323   0.94816   0.48777
H                     1.52674  -0.54738   0.80892
H                    -1.55659  -0.74097  -1.12376
H                    -0.91408  -1.10289   0.51426
H                    -1.81313   0.78966   0.87871

