%nproc=32
%mem=180GB
#P OPT=calcfc Freq B3LYP/6-31G**

Frag_340

0 1
C                     2.1426   -0.1138    0.106
C                     0.8973   -0.5886    0.0868
C                    -0.2932    0.2818   -0.0105
C                    -1.6587   -0.3394   -0.0353
N                    -0.1616    1.5651   -0.1481
H                     2.3473    0.9478    0.051
H                     2.9786   -0.7973    0.1793
H                     0.7551   -1.6608    0.1471
H                    -1.6649   -1.2915    0.5364
H                    -1.9514   -0.5455   -1.0859
H                    -2.4056    0.3428    0.4236
H                    -0.9856    2.1993   -0.2505

