%nproc=32
%mem=180GB
#P OPT Freq B3LYP/6-31G**

Frag_272

0 1
O                    -1.4696    2.1495   -0.6657
C                    -0.7857    1.1279   -0.3915
C                    -1.4653   -0.1894   -0.1625
N                    -0.6538   -1.0415    0.7042
C                     0.7775   -0.9958    0.6683
O                     1.4501   -1.836     1.3227
C                     1.4754    0.0266   -0.1786
N                     0.6429    1.2175   -0.3355
H                    -2.4587   -0.025     0.3078
H                    -1.6119   -0.6959   -1.1395
H                    -1.1273   -1.7749    1.2783
H                     2.4409    0.3113    0.2923
H                     1.6804   -0.4103   -1.1784
H                     1.1049    2.1359   -0.5219

