%nproc=32
%mem=180GB
%chk=B3LYP6-31Gdp.Frag_974.chk
#P OPT Freq B3LYP/6-31G(d,p)

Frag_974

0 1
N                    -1.03954  -0.50499   0.34955
C                    -0.32065   0.66366   0.28549
N                     0.84036   0.82445  -0.23096
O                     1.33276  -0.43208  -0.68387
H                    -1.72844  -0.57203   1.08091
H                    -0.4929   -1.34079   0.20434
H                    -0.80142   1.55985   0.66474
H                     2.20982  -0.19817  -1.0003

