%nproc=32
%mem=180GB
%chk=B3LYP6-31Gdp.Frag_765.chk
#P OPT Freq B3LYP/6-31G(d,p)

Frag_765

0 1
C                    -1.54028  -0.19613   0.62443
C                    -0.18675   0.22598   0.12263
N                     0.20591   1.60528   0.27124
C                     0.69162  -0.58342  -0.5052
N                     1.86444  -0.14332  -1.09875
O                     0.53205  -1.92348  -0.70088
H                    -1.79415  -1.23852   0.39518
H                    -1.63219  -0.0805    1.71476
H                    -2.33909   0.41438   0.17813
H                    -0.39088   2.22127  -0.27785
H                     0.10422   1.90861   1.2373
H                     2.63372  -0.78915  -0.97747
H                     2.07916   0.79775  -0.79276
H                    -0.22768  -2.21875  -0.19085

