%nproc=32
%mem=180GB
%chk=B3LYP6-31Gdp.Frag_1115.chk
#P OPT Freq B3LYP/6-31G(d,p)

Frag_1115

0 1
N                     1.93473   0.06594   1.03899
N                     0.74096  -0.11937   1.28178
C                    -0.17035  -0.3617    0.13639
N                    -1.32095   0.50062   0.23658
H                     2.12677   0.03367   0.00305
H                    -0.50299  -1.40163   0.23747
H                     0.42054  -0.27567  -0.80219
H                    -2.10729   0.12876  -0.2805
H                    -1.12142   1.42927  -0.11636

