%nproc=64
%mem=200GB
#P OPT=calcfc Freq B3LYP/6-31G**

B3LYP6-31Gxx.Frag_91

0 1
C                    -0.3954    1.8605   -1.2448
C                     0.3414    0.5523   -1.1463
O                     0.7135   -0.1083   -2.3216
C                     0.6835   -0.055     0.
C                     0.3889    0.4679    1.3762
O                     1.3593   -1.2547    0.
H                     0.1532    2.6852   -0.7741
H                    -0.5538    2.1416   -2.2922
H                    -1.3852    1.8187   -0.7742
H                     0.4248    0.4042   -3.0838
H                    -0.687     0.5784    1.5564
H                     0.8519    1.4453    1.5564
H                     0.784    -0.2333    2.1141
H                     1.496    -1.4976    0.9286

