%nproc=32
%mem=180GB
%chk=B3LYP6-31Gdp.Frag_619.chk
#P OPT Freq B3LYP/6-31G(d,p)

Frag_619

0 1
C                     2.0913   -0.19496   0.09249
O                     0.85055  -0.82944  -0.15929
C                    -0.30085  -0.01644  -0.00599
C                    -1.46827  -1.00838  -0.06361
N                    -0.28156   0.96802  -1.09727
N                    -0.30714   0.68891   1.26437
H                     2.86283  -0.94895  -0.08168
H                     2.1552    0.15167   1.13086
H                     2.25924   0.65575  -0.57938
H                    -1.38596  -1.61732  -0.96664
H                    -1.44399  -1.67554   0.80255
H                    -2.42592  -0.47811  -0.08086
H                    -1.14988   1.49557  -1.10169
H                    -0.21994   0.47897  -1.9864
H                    -1.22111   0.67958   1.69731
H                    -0.0144    1.65057   1.13532

