%nproc=32
%mem=180GB
%chk=B3LYP6-31Gdp.Frag_574.chk
#P OPT Freq B3LYP/6-31G(d,p)

Frag_574

0 1
C                     1.35023   0.0916   -0.5476
N                     0.66746   0.32132   0.74534
N                    -0.56461   0.22498   0.82097
C                    -1.35562  -0.11998  -0.38151
H                     1.16747  -0.92333  -0.92114
H                     1.00874   0.80093  -1.31131
H                     2.41973   0.22664  -0.38591
H                    -1.22344   0.62634  -1.17432
H                    -2.40545  -0.1506   -0.08975
H                    -1.06471  -1.0979   -0.78408

