%nproc=128
%mem=128GB
#P OPT Freq B3LYP/6-31G**

Frag_72

0 1
O                     0.        1.173    -0.2461
C                     0.        0.        0.5303
O                     0.       -1.173    -0.2461
H                     0.8017    1.1541   -0.788
H                     0.8915   -0.0796    1.1659
H                    -0.8915    0.0796    1.1659
H                    -0.8017   -1.1541   -0.788

