%nproc=32
%mem=180GB
%chk=B3LYP6-31Gdp.Frag_889.chk
#P OPT Freq B3LYP/6-31G(d,p)

Frag_889

0 1
N                     1.39114  -0.39692   0.07428
N                     0.04267  -0.03595   0.16731
O                    -0.38087   0.39747   1.26465
N                    -0.66091  -0.24746  -0.87514
O                    -1.9647    0.03974  -0.617
H                     1.90738   0.32194   0.57408
H                     1.63819  -0.41348  -0.91221
H                    -1.97281   0.33467   0.32394

