%nproc=32
%mem=180GB
%chk=B3LYP6-31Gdp.Frag_969.chk
#P OPT Freq B3LYP/6-31G(d,p)

Frag_969

0 1
C                     1.27262   1.66418   0.42972
C                     0.96518   0.39848   0.12888
N                     1.90422  -0.56643  -0.25264
C                    -0.46741  -0.15015   0.09224
C                    -0.80655  -0.62359  -1.3373
N                    -0.49682  -1.32405   0.97522
N                    -1.41005   0.87193   0.57684
H                     0.51641   2.38604   0.69672
H                     2.30357   2.00332   0.43138
H                     2.85608  -0.31923  -0.0196
H                     1.65642  -1.47976   0.11141
H                    -0.77415   0.22343  -2.0279
H                    -0.10262  -1.37857  -1.69165
H                    -1.81936  -1.04469  -1.35961
H                    -1.36695  -1.83338   0.84634
H                    -0.48726  -0.99534   1.93777
H                    -1.39248   1.67674  -0.04567
H                    -2.35095   0.49096   0.50786

