%nproc=32
%mem=180GB
%chk=B3LYP6-31Gdp.Frag_694.chk
#P OPT Freq B3LYP/6-31G(d,p)

Frag_694

0 1
C                     1.59185  -0.14334   0.18768
N                     0.65114   0.45312  -0.41999
C                    -0.67799   0.0365   -0.1331
N                    -0.98292  -1.10692   0.31338
O                    -1.5635    1.01093  -0.43419
H                     1.41065  -0.94328   0.91126
H                     2.62028   0.14538  -0.02727
H                    -1.99368  -1.19541   0.41207
H                    -1.05582   1.74312  -0.80993

