%nproc=32
%mem=180GB
%chk=B3LYP6-31Gdp.Frag_604.chk
#P OPT Freq B3LYP/6-31G(d,p)

Frag_604

0 1
C                    -0.54716   0.27838  -1.45988
C                    -0.21702  -0.09318  -0.00237
C                    -0.77986   0.97309   0.96068
N                    -0.75333  -1.43671   0.26251
C                     1.30738  -0.17198   0.13626
N                     2.0291   -1.20446   0.25249
O                     1.87622   1.05829   0.10172
H                    -0.0585    1.21452  -1.73678
H                    -1.6287    0.40588  -1.58268
H                    -0.21016  -0.50991  -2.13829
H                    -0.36774   1.96311   0.75489
H                    -1.86949   1.01985   0.86093
H                    -0.5429    0.72058   2.0001
H                    -1.71225  -1.48871  -0.0674
H                    -0.78528  -1.605     1.26475
H                     1.42945  -2.02958   0.22981
H                     2.83025   0.90581   0.16335

