%nproc=32
%mem=180GB
#P OPT Freq B3LYP/6-31G**

Frag_208

0 1
N                     1.7642   -0.6242   -0.2808
C                     0.6715    0.3356   -0.4016
C                    -0.6742   -0.3776   -0.2701
N                    -1.7673    0.5739   -0.4415
H                     1.8001   -0.9556    0.7109
H                     2.6586   -0.1109   -0.454
H                     0.7656    1.1166    0.3861
H                     0.7268    0.8292   -1.3968
H                    -0.7479   -1.1642   -1.0529
H                    -0.7496   -0.8641    0.7284
H                    -2.6634    0.0352   -0.4227
H                    -1.7842    1.2061    0.3919

