%nproc=32
%mem=180GB
%chk=B3LYP6-31Gdp.Frag_682.chk
#P OPT Freq B3LYP/6-31G(d,p)

Frag_682

0 1
C                    -1.91494   0.38977   0.66812
C                    -0.86915   0.27476  -0.41351
N                    -1.12381   0.70612  -1.58075
C                     0.48377  -0.36378  -0.01364
C                     1.40153   0.69652   0.61283
N                     1.11308  -0.90087  -1.19436
O                     0.26697  -1.43987   0.91604
H                    -2.7728    0.94218   0.28392
H                    -2.24143  -0.60365   0.99251
H                    -1.52883   0.91007   1.55378
H                    -0.31071   0.5353   -2.18186
H                     1.61843   1.48949  -0.10614
H                     0.93513   1.14937   1.49322
H                     2.34013   0.22994   0.92925
H                     2.03571  -1.25263  -0.95772
H                     0.57103  -1.69195  -1.53138
H                    -0.00411  -1.07097   1.76348

