%nproc=32
%mem=180GB
%chk=B3LYP6-31Gdp.Frag_1013.chk
#P OPT Freq B3LYP/6-31G(d,p)

Frag_1013

0 1
C                    -0.88207   0.32325   0.03886
N                     0.30744  -0.38675   0.51983
C                     1.35878  -0.51409  -0.29577
N                     2.25443  -0.6661   -1.02032
H                    -1.17511  -0.09443  -0.92616
H                    -1.69425   0.1568    0.74944
H                    -0.71872   1.40158  -0.07741
H                     0.5493   -0.22006   1.48664

