%nproc=32
%mem=180GB
#P OPT=calcfc Freq B3LYP/6-31G**

Frag_373

0 1
C                    -0.1207    1.1574    0.3818
C                    -0.1954   -0.2569   -0.1173
N                    -1.4557   -0.8141   -0.4943
N                     0.8738   -0.9859   -0.2122
O                     2.1158   -0.5047    0.1358
H                     0.2895    1.1699    1.4134
H                     0.538     1.7553   -0.2827
H                    -1.1268    1.6261    0.3961
H                    -1.5163   -1.797    -0.8423
H                    -2.3329   -0.2516   -0.4286
H                     2.9308   -1.0986    0.0503

