%nproc=32
%mem=180GB
#P OPT=calcfc Freq B3LYP/6-31G**

Frag_368

0 1
C                    -0.7701   -1.4459    1.2292
N                    -0.8453   -0.5354    0.3081
C                     0.2365    0.292    -0.1548
C                     0.0486    1.0801   -1.4087
N                     1.3217    0.4639    0.5371
H                    -1.6571   -2.0031    1.4974
H                     0.1597   -1.696     1.7197
H                    -0.3617    2.0808   -1.1592
H                    -0.6585    0.5563   -2.0859
H                     1.0182    1.2033   -1.9366
H                     1.5082    0.0039    1.4537

