%nproc=32
%mem=180GB
%chk=B3LYP6-31Gdp.Frag_927.chk
#P OPT Freq B3LYP/6-31G(d,p)

Frag_927

0 1
C                     1.87201  -0.01364  -0.05367
C                     0.47193   0.48673  -0.30685
N                     0.14108   1.43973  -1.08103
C                    -0.65235  -0.26951   0.4183
N                    -1.93079   0.43255   0.47107
N                    -0.74287  -1.5809   -0.22996
H                     1.91491  -1.09339  -0.22215
H                     2.60313   0.48833  -0.69321
H                     2.15145   0.15726   0.99329
H                     0.96059   1.84323  -1.54097
H                    -0.33102  -0.4514    1.45254
H                    -2.03733   0.93824  -0.4081
H                    -1.88379   1.16024   1.18084
H                    -1.49758  -2.09575   0.21656
H                    -1.03939  -1.44172  -1.19397

