%nproc=32
%mem=180GB
#P OPT Freq B3LYP/6-31G**

Frag_172

0 1
C                     0.8302    0.0015   -0.0331
N                    -0.1512   -0.8418   -0.0028
O                    -1.4645   -0.4257    0.0539
H                     0.6466    1.0684   -0.0145
H                     1.848    -0.3608   -0.0775
H                    -1.7091    0.5583    0.074

