%nproc=32
%mem=180GB
#P OPT=calcfc Freq B3LYP/6-31G**

Frag_338

0 1
N                     0.3681   -0.0001    1.4715
C                     0.5462    0.0089    0.1867
N                     1.8767    0.0348   -0.3299
N                    -0.5662   -0.0068   -0.7259
N                    -1.9051   -0.0325   -0.3019
H                    -0.5729   -0.0189    1.9211
H                     2.046     0.0425   -1.3601
H                     2.6972    0.0465    0.3161
H                    -0.375     0.0013   -1.7523
H                    -2.0424   -0.8876    0.2835
H                    -2.0725    0.812     0.2912

