%nproc=32
%mem=180GB
#P OPT Freq B3LYP/6-31G**

Frag_199

0 1
C                    -1.3394   -0.3855    0.1441
C                    -0.8764    0.9601    0.5226
C                    -0.1643    0.2412   -0.6567
C                     0.8559   -0.93     -0.6049
C                     1.3188    0.4157   -0.2265
H                    -1.1573   -1.125     0.957
H                    -2.3101   -0.3759   -0.3951
H                    -0.4368    0.9693    1.5461
H                    -1.5735    1.7648    0.2069
H                     1.2249   -1.2526   -1.6013
H                     0.8882   -1.6325    0.2589
H                     1.9612    0.8881   -0.9992
H                     1.6087    0.4622    0.8481

