%nproc=32
%mem=180GB
%chk=B3LYP6-31Gdp.Frag_583.chk
#P OPT Freq B3LYP/6-31G(d,p)

Frag_583

0 1
C                    -1.75644   0.16804  -0.04844
O                    -0.50843   0.00103  -0.69397
C                     0.56388  -0.15442   0.19532
N                     1.70961  -0.41566  -0.64248
O                     0.80469   0.97859   0.97957
H                    -1.75902   1.05432   0.59643
H                    -2.01545  -0.71034   0.56246
H                    -2.50648   0.28624  -0.83323
H                     0.31996  -0.94521   0.92866
H                     1.47022  -1.10967  -1.34256
H                     2.47304  -0.77535  -0.08012
H                     1.20453   1.62242   0.37846

