%nproc=32
%mem=180GB
#P OPT=calcfc Freq B3LYP/6-31G**

Frag_379

0 1
C                    -0.6642    0.6746   -1.1326
C                    -0.0858    0.0169    0.0922
C                    -0.8604    0.034     1.3834
N                     1.081    -0.565     0.0348
O                     1.6187   -1.1695    1.1501
O                     1.7971   -0.5856   -1.1428
H                    -0.7827   -0.0783   -1.94
H                    -1.6581    1.1243   -0.9281
H                     0.0167    1.4793   -1.4811
H                    -1.8298    0.5634    1.275
H                    -1.0672   -1.0073    1.7086
H                    -0.2678    0.5504    2.1675
H                     2.7025   -1.0372   -1.1868

