%nproc=128
%mem=128GB
#P OPT Freq B3LYP/6-31G**

Frag_13

0 1
C                    -1.4996   -1.1816   -0.0001
C                    -0.7522   -0.07      0.0001
C                    -1.3505    1.3155    0.
C                     0.7495   -0.2387    0.0003
C                     1.6109    1.0125    0.
O                     1.2646   -1.3455    0.
H                    -1.022    -2.1555    0.
H                    -2.5847   -1.1418   -0.0002
H                    -1.0424    1.8927   -0.8798
H                    -1.0426    1.8927    0.8798
H                    -2.4422    1.266    -0.0002
H                     1.404     1.6319    0.8801
H                     1.4036    1.6317   -0.8802
H                     2.6609    0.7194   -0.0002

