%nproc=32
%mem=180GB
%chk=B3LYP6-31Gdp.Frag_852.chk
#P OPT Freq B3LYP/6-31G(d,p)

Frag_852

0 1
C                    -0.36119   1.34974  -0.18813
N                    -0.05586  -0.12086  -0.2253
C                    -0.61378  -0.76791   1.01056
C                     1.42132  -0.30514  -0.23958
N                    -0.5115   -0.75311  -1.43827
H                     0.02916   1.77327  -1.1119
H                     0.07271   1.84186   0.69143
H                    -1.4466    1.45841  -0.17393
H                    -0.18811  -0.34473   1.92914
H                    -0.40091  -1.8324    0.92908
H                    -1.69403  -0.61604   1.00029
H                     1.6097   -1.37651  -0.28566
H                     1.8752    0.14333   0.64835
H                     1.79252   0.15623  -1.15325
H                    -1.52843  -0.60614  -1.39292

