%nproc=32
%mem=180GB
%chk=B3LYP6-31Gdp.Frag_695.chk
#P OPT Freq B3LYP/6-31G(d,p)

Frag_695

0 1
C                     1.80278  -0.23309   0.52008
C                     0.51249   0.47839   0.26879
O                     0.58801   1.81317   0.5607
C                    -0.6367   -0.06125  -0.17308
N                    -0.92309  -1.44659  -0.31167
N                    -1.73379   0.83544  -0.40123
H                     2.01449  -0.31238   1.59334
H                     1.80679  -1.23748   0.09135
H                     2.62807   0.33259   0.07344
H                    -0.31494   2.14465   0.4169
H                    -1.07512  -1.72069  -1.27978
H                    -0.19663  -2.03526   0.07603
H                    -1.87895   1.01436  -1.39196
H                    -2.59322   0.42814  -0.04299

