%nproc=32
%mem=180GB
%chk=B3LYP6-31Gdp.Frag_1081.chk
#P OPT Freq B3LYP/6-31G(d,p)

Frag_1081

0 1
N                    -1.02096  -0.71526  -0.76781
C                    -0.47706   0.34522   0.07273
O                    -0.84945   0.24591   1.42326
O                    -1.00207   1.56733  -0.36659
C                     1.05946   0.37129  -0.02587
O                     1.64088  -0.70899   0.70596
H                    -1.98627  -0.86317  -0.48016
H                    -0.53742  -1.58747  -0.56807
H                    -0.19116  -0.32946   1.83593
H                    -1.20262   1.44654  -1.30087
H                     1.39469   1.30007   0.44208
H                     1.37187   0.36991  -1.07605
H                     1.80003  -1.44222   0.10557

