%nproc=32
%mem=180GB
%chk=B3LYP6-31Gdp.Frag_638.chk
#P OPT Freq B3LYP/6-31G(d,p)

Frag_638

0 1
C                     2.02031  -0.42088   0.19966
N                     0.87084  -0.60633  -0.67004
C                    -0.42148  -0.02562  -0.26023
C                    -0.69767  -0.14652   1.25635
C                    -0.4488    1.44875  -0.68913
N                    -1.43582  -0.75042  -1.04314
H                     2.22717   0.64789   0.32702
H                     1.93601  -0.86156   1.208
H                     2.89966  -0.86042  -0.28177
H                     0.73155  -1.58483  -0.88909
H                     0.03103   0.40383   1.85956
H                    -0.66547  -1.19702   1.5698
H                    -1.69115   0.24846   1.49258
H                     0.3855    1.99856  -0.24525
H                    -1.37602   1.93787  -0.36958
H                    -0.36282   1.51176  -1.77629
H                    -1.74254  -1.57357  -0.53042
H                    -2.2604   -0.17007  -1.15792

