%nproc=32
%mem=180GB
#P OPT Freq B3LYP/6-31G**

Frag_275

0 1
C                    -1.3255   -0.5572    0.403
C                    -0.4549   -0.114    -0.7797
O                    -1.1695    0.7698   -1.6063
C                     0.8611    0.5346   -0.3137
N                     1.6942   -0.4319    0.397
H                    -0.7998   -1.33      1.0029
H                    -1.5656    0.3074    1.0581
H                    -2.2747   -0.9941    0.0265
H                    -0.2095   -1.0146   -1.3837
H                    -1.3872    1.5756   -1.0676
H                     0.6395    1.394     0.3571
H                     1.4144    0.9232   -1.1981
H                     2.5381    0.0746    0.7503
H                     2.0393   -1.1373   -0.2941

