%nproc=32
%mem=180GB
%chk=B3LYP6-31Gdp.Frag_704.chk
#P OPT Freq B3LYP/6-31G(d,p)

Frag_704

0 1
C                     1.37279  -0.24378   0.50189
N                     0.21656   0.59542   0.20934
C                    -0.96078  -0.18222  -0.14382
O                    -2.10219   0.62324  -0.30144
H                     1.64534  -0.94976  -0.30401
H                     2.24088   0.38864   0.70608
H                     1.17309  -0.83562   1.40257
H                     0.44235   1.22436  -0.55655
H                    -0.80185  -0.81124  -1.04485
H                    -1.17004  -0.85967   0.69256
H                    -2.05624   1.05053  -1.16188

