%nproc=32
%mem=180GB
%chk=B3LYP6-31Gdp.Frag_1121.chk
#P OPT Freq B3LYP/6-31G(d,p)

Frag_1121

0 1
C                    -1.25602   0.60783   0.91777
C                    -0.45412   0.18805  -0.05874
O                    -0.61488   0.44793  -1.38736
C                     0.79528  -0.64315   0.16613
O                     1.95688   0.13195  -0.0889
O                     0.8339   -1.7542   -0.665
H                    -1.0532    0.3341    1.94476
H                    -2.13351   1.21805   0.72903
H                    -1.4343    0.93583  -1.524
H                     0.79447  -1.02771   1.19447
H                     1.8458    0.98849   0.33862
H                     0.7198   -1.42727  -1.56679

