%nproc=32
%mem=180GB
%chk=B3LYP6-31Gdp.Frag_1142.chk
#P OPT Freq B3LYP/6-31G(d,p)

Frag_1142

0 1
C                    -1.78214  -0.15111   0.35493
C                    -0.61028   0.58436  -0.25981
O                    -0.73462   1.56042  -0.98007
N                     0.6493    0.10467   0.04671
N                     0.78671  -1.19323   0.55837
N                     1.7521    0.61282  -0.6897
H                    -1.89863  -1.13674  -0.10464
H                    -1.63979  -0.3165    1.42445
H                    -2.67871   0.44242   0.17559
H                     1.47577  -1.16497   1.30599
H                     1.18227  -1.78324  -0.17409
H                     1.34128   1.06449  -1.50924
H                     2.15684   1.37672  -0.14849

