%nproc=32
%mem=180GB
%chk=B3LYP6-31Gdp.Frag_986.chk
#P OPT Freq B3LYP/6-31G(d,p)

Frag_986

0 1
C                     2.06132   1.32763   0.37518
C                     1.0577    0.65986   0.36189
N                    -0.05807  -0.08625   0.37173
C                     0.04342  -1.4288   -0.19197
C                    -1.31576   0.60749   0.11256
H                     2.9457    1.90953   0.43021
H                    -0.8023   -2.02932   0.15765
H                     0.96942  -1.89385   0.15042
H                     0.03768  -1.4251   -1.29329
H                    -1.3278    1.54903   0.66422
H                    -2.14668  -0.01475   0.45956
H                    -1.46485   0.82471  -0.95686

