%nproc=32
%mem=180GB
%chk=B3LYP6-31Gdp.Frag_493.chk
#P OPT Freq B3LYP/6-31G(d,p)

Frag_493

0 1
C                     1.65325   0.12118   1.0285
C                     0.81789   0.01797  -0.01217
N                     1.12589  -0.59299  -1.22298
C                    -0.58802   0.60338   0.03311
C                    -1.61753  -0.42547   0.50301
O                    -1.02047   1.03626  -1.25581
H                     1.36458   0.67754   1.91092
H                     2.635    -0.33948   1.03032
H                     0.33029  -0.83833  -1.79232
H                     1.85096  -1.29325  -1.2025
H                    -0.58337   1.44573   0.73929
H                    -1.39876  -0.7396    1.52594
H                    -2.61968   0.01066   0.46694
H                    -1.60427  -1.30915  -0.14256
H                    -0.34566   1.62566  -1.60968

