%nproc=32
%mem=180GB
%chk=B3LYP6-31Gdp.Frag_955.chk
#P OPT Freq B3LYP/6-31G(d,p)

Frag_955

0 1
N                    -0.74125  -1.03659  -0.09634
C                    -0.13008   0.19714   0.02168
N                    -0.99041   1.29472  -0.05712
N                     1.128     0.4032    0.19343
O                     1.83131  -0.83665   0.07131
H                    -1.50445  -1.05271  -0.7578
H                    -0.07155  -1.77972  -0.2398
H                    -1.78101   1.20954   0.57215
H                    -0.48403   2.15324   0.12177
H                     2.74368  -0.55227   0.17072

