%nproc=32
%mem=180GB
%chk=B3LYP6-31Gdp.Frag_743.chk
#P OPT Freq B3LYP/6-31G(d,p)

Frag_743

0 1
C                     1.65554   0.86604   0.03928
N                     0.70548   0.0977   -0.75185
N                     1.30315  -1.23091  -0.97107
C                    -0.61325  -0.08321  -0.12865
C                    -0.59558  -0.8873    1.18586
C                    -1.28621   1.28244   0.05877
O                    -1.34417  -0.81355  -1.12574
H                     2.57203   0.99273  -0.54735
H                     1.93442   0.38421   0.99039
H                     1.25755   1.86241   0.23729
H                     0.58861  -1.70939  -1.51954
H                     2.04757  -1.04925  -1.64504
H                    -1.61736  -1.05847   1.54406
H                    -0.09703  -1.84639   1.03696
H                    -0.0657   -0.34317   1.9726
H                    -2.34592   1.12615   0.28002
H                    -0.85643   1.85513   0.88466
H                    -1.20573   1.86117  -0.86411
H                    -2.03695  -1.30645  -0.67645

