%nproc=32
%mem=180GB
#P OPT Freq B3LYP/6-31G**

Frag_137

0 1
C                    -0.9568    0.4557   -0.0634
N                     0.1406   -0.256     0.5873
N                     1.1913   -0.3794   -0.3397
H                    -0.6392    1.4868   -0.3293
H                    -1.2844   -0.0809   -0.9814
H                    -1.8173    0.5267    0.6351
H                    -0.2062   -1.221     0.8017
H                     1.6962    0.5364   -0.3597
H                     1.8758   -1.0683    0.0496

