%nproc=32
%mem=180GB
#P OPT Freq B3LYP/6-31G**

Frag_230

0 1
C                    -1.1657    0.1284    0.044
C                    -0.0659    1.1702   -0.0606
N                     1.201     0.453    -0.0994
C                     0.8438   -0.9305   -0.3962
N                    -0.5191   -1.1765    0.0642
H                    -1.7739    0.2849    0.9636
H                    -1.8383    0.1887   -0.8388
H                    -0.0999    1.8707    0.8044
H                    -0.181     1.7587   -0.9965
H                     1.6126    0.4732    0.864
H                     1.5587   -1.6369    0.0848
H                     0.8911   -1.0908   -1.4951
H                    -0.4632   -1.4932    1.0614

