%nproc=32
%mem=180GB
%chk=B3LYP6-31Gdp.Frag_640.chk
#P OPT Freq B3LYP/6-31G(d,p)

Frag_640

0 1
C                     1.36758  -0.88194  -0.21268
C                     0.43313   0.09016   0.51471
N                     0.89183   1.46831   0.29917
C                    -1.01385  -0.12607   0.10188
N                    -1.90281  -0.48473   0.93196
O                    -1.18526   0.14116  -1.22648
H                     1.08521  -1.91962  -0.0127
H                     2.39359  -0.72022   0.12602
H                     1.32956  -0.72105  -1.29448
H                     0.46599  -0.10989   1.58843
H                     0.77585   1.70889  -0.68204
H                     0.30119   2.11093   0.82013
H                    -2.82766  -0.57571   0.50285
H                    -2.11454   0.01968  -1.45675

