%nproc=128
%mem=128GB
#P OPT Freq B3LYP/6-31G**

Frag_12

0 1
C                    -1.3116    1.3367   -0.0048
C                    -0.7198    0.138    -0.0005
C                    -1.4925   -1.1584    0.0044
C                     0.7912    0.1215    0.0004
N                     1.3751   -1.1174    0.0051
O                     1.4664    1.1441    0.004
H                    -0.7068    2.2367   -0.0076
H                    -2.3924    1.4395   -0.005
H                    -2.5686   -0.9693    0.0112
H                    -1.2721   -1.7671   -0.8822
H                    -1.2588   -1.7672    0.887
H                     0.8562   -1.977    -0.0457
H                     2.3821   -1.1528   -0.0223

