%nproc=32
%mem=180GB
#P OPT=calcfc Freq B3LYP/6-31G**

Frag_305

0 1
C                     1.9076   -0.0591    0.6609
N                     0.6508    0.6494    0.4504
C                    -0.4062    0.1485   -0.1214
C                    -1.6358    0.9916   -0.2368
N                    -0.442    -1.2083   -0.5849
H                     2.3383   -0.3716   -0.314
H                     1.7428   -0.9459    1.3091
H                     2.6263    0.6192    1.1648
H                    -1.3807    2.0707   -0.1659
H                    -2.1288    0.81     -1.2148
H                    -2.34      0.7306    0.5803
H                    -1.3161   -1.5924   -1.0077
H                     0.3838   -1.8426   -0.5199

