%nproc=32
%mem=180GB
%chk=B3LYP6-31Gdp.Frag_767.chk
#P OPT Freq B3LYP/6-31G(d,p)

Frag_767

0 1
N                    -0.90482   0.89438  -1.17408
C                    -0.42965   0.31446  -0.13587
N                    -1.09723   0.35201   1.0624
C                     0.90338  -0.40333  -0.07666
N                     1.69023  -0.44705   0.91422
O                     1.25817  -1.01986  -1.22578
H                    -0.22769   0.90267  -1.93548
H                    -2.02521   0.74726   1.02076
H                    -0.97937  -0.42625   1.6915
H                     1.31422   0.11023   1.67948
H                     0.49797  -1.02442  -1.8205

