%nproc=32
%mem=180GB
%chk=B3LYP6-31Gdp.Frag_491.chk
#P OPT Freq B3LYP/6-31G(d,p)

Frag_491

0 1
C                    -1.59526  -0.76454   0.13498
C                    -0.81392   0.5088    0.34002
N                    -1.40555   1.54192   0.78686
C                     0.67198   0.5206    0.00251
C                     1.30226  -0.74819  -0.52244
N                     1.29046   1.61784   0.189
H                    -1.18976  -1.58699   0.73544
H                    -2.63277  -0.59478   0.42369
H                    -1.5666   -1.09069  -0.91106
H                    -0.71836   2.3021    0.85814
H                     2.36636  -0.60015  -0.72256
H                     1.19561  -1.56878   0.19537
H                     0.81801  -1.07631  -1.44865
H                     2.27755   1.53927  -0.06119

