%nproc=32
%mem=180GB
%chk=B3LYP6-31Gdp.Frag_1136.chk
#P OPT Freq B3LYP/6-31G(d,p)

Frag_1136

0 1
N                     1.47639  -0.15575  -0.36243
N                     1.2094    0.6158   -1.26714
N                    -1.26498  -0.01208   0.38065
H                     2.43606  -0.53672  -0.19743
H                     0.74569  -0.48571   0.3113
H                    -1.68706   0.66247   1.01109
H                    -0.89768   0.51105  -0.41979
H                    -2.0178   -0.59895   0.03495

