%nproc=128
%mem=128GB
#P OPT Freq B3LYP/6-31G**

Frag_37

0 1
C                     1.2158   -0.2395   -0.0217
C                    -0.0848    0.5555    0.0468
O                    -1.2404   -0.2604   -0.1093
H                     1.2761   -0.7948   -0.9624
H                     1.2813   -0.9598    0.8031
H                     2.0855    0.4229    0.0485
H                    -0.1277    1.1307    0.9859
H                    -0.1273    1.2801   -0.7729
H                    -1.2505   -0.892     0.6219

