%nproc=32
%mem=180GB
%chk=B3LYP6-31Gdp.Frag_830.chk
#P OPT Freq B3LYP/6-31G(d,p)

Frag_830

0 1
C                     1.57868  -0.45801  -0.01293
C                     0.52369   0.59328   0.22463
O                     0.72271   1.654     0.80118
N                    -0.72873   0.3468   -0.29596
N                    -1.18916  -0.94417  -0.46197
O                    -1.71998   1.25356   0.15172
H                     1.45938  -0.94479  -0.98085
H                     1.5055   -1.23412   0.75624
H                     2.55638   0.01871   0.06409
H                    -1.72065  -1.22288   0.36459
H                    -1.82436  -0.95611  -1.25512
H                    -1.16354   1.89372   0.64439

