%nproc=32
%mem=180GB
%chk=B3LYP6-31Gdp.Frag_1047.chk
#P OPT Freq B3LYP/6-31G(d,p)

Frag_1047

0 1
C                     0.7628   -1.68447   0.7773
C                     0.69748  -0.56225   0.0634
C                     1.8484   -0.07263  -0.77635
C                    -0.53628   0.35183   0.09321
N                    -0.84341   0.74212  -1.29338
N                    -1.63785  -0.31341   0.81365
N                    -0.16976   1.58222   0.79772
H                    -0.05043  -2.00936   1.41368
H                     1.65597  -2.3015    0.76187
H                     2.72962  -0.70334  -0.63369
H                     2.09491   0.95758  -0.50261
H                     1.59682  -0.05796  -1.84143
H                    -1.72881   1.24452  -1.30673
H                    -0.9896   -0.0972   -1.8474
H                    -2.43772   0.31441   0.8319
H                    -1.93059  -1.14815   0.31115
H                    -0.79812   2.33847   0.54257
H                    -0.26344   1.41932   1.79523

