%nproc=128
%mem=128GB
#P OPT Freq B3LYP/6-31G**

Frag_20

0 1
C                    -1.1473    1.4204    0.1792
C                    -0.8212    0.1535   -0.0965
C                    -1.8325   -0.9655   -0.0269
C                     0.5582   -0.2721   -0.4913
C                     1.5509   -0.7274    0.5653
C                     1.7903    0.5457   -0.2072
H                    -2.1538    1.6915    0.4846
H                    -0.427     2.2287    0.1054
H                    -2.8197   -0.6042    0.2728
H                    -1.9338   -1.4626   -1.0006
H                    -1.5144   -1.7375    0.6844
H                     0.5861   -0.8584   -1.4102
H                     2.1708   -1.594     0.3549
H                     1.2494   -0.6303    1.6042
H                     1.6763    1.4834    0.3266
H                     2.5756    0.5561   -0.9569

