%nproc=32
%mem=180GB
%chk=B3LYP6-31Gdp.Frag_434.chk
#P OPT Freq B3LYP/6-31G(d,p)

Frag_434

0 1
C                     2.06163  -0.12846   0.19576
C                     0.95847   0.54259  -0.11277
C                    -0.37372  -0.07599  -0.43519
C                    -1.45912   0.40107   0.54092
O                    -0.24032  -1.48892  -0.41078
H                     2.98989   0.38405   0.42414
H                     2.06885  -1.21154   0.224
H                     0.9651    1.63069  -0.14338
H                    -0.66047   0.25694  -1.44998
H                    -1.55001   1.49194   0.52705
H                    -2.43574  -0.01644   0.26861
H                    -1.21328   0.08336   1.55824
H                    -1.11117  -1.8693   -0.55763

