%nproc=32
%mem=180GB
%chk=B3LYP6-31Gdp.Frag_880.chk
#P OPT Freq B3LYP/6-31G(d,p)

Frag_880

0 1
C                     2.05802  -0.15166  -0.41567
C                     0.84936  -0.27167   0.05417
C                    -0.36088  -0.39017   0.52317
C                    -1.55938   0.38035   0.0281
H                     2.41484  -0.76622  -1.23807
H                     2.76182   0.56719  -0.00409
H                    -0.53421  -1.09632   1.33503
H                    -1.28722   1.05914  -0.78288
H                    -2.33692  -0.30081  -0.33744
H                    -2.00542   0.97007   0.83767

