%nproc=32
%mem=180GB
%chk=B3LYP6-31Gdp.Frag_476.chk
#P OPT Freq B3LYP/6-31G(d,p)

Frag_476

0 1
C                    -1.46483  -0.81314  -0.58803
C                    -0.53187   0.02112   0.24041
N                    -0.86578   0.42707   1.40097
C                     0.78055   0.38667  -0.44851
N                     1.84591   0.57393   0.39012
O                     0.84492   0.53607  -1.65258
H                    -1.62697  -0.32896  -1.55511
H                    -2.41018  -0.9481   -0.06228
H                    -1.01974  -1.79173  -0.80231
H                    -0.13719   1.02148   1.80537
H                     2.74129   0.73617  -0.04413
H                     1.84401   0.17951   1.31587

