%nproc=32
%mem=180GB
#P OPT Freq B3LYP/6-31G**

Frag_273

0 1
C                    -0.8169    1.3381   -0.259
C                     0.0435    0.0995    0.0023
C                     1.5328    0.2971    0.2949
C                    -0.6381   -1.0561    0.7221
C                    -0.3312   -1.1576   -0.7705
H                    -0.7803    2.0067    0.6263
H                    -1.8778    1.0738   -0.4584
H                    -0.4185    1.8856   -1.1386
H                     2.0548   -0.6686    0.4687
H                     1.6508    0.9296    1.1994
H                     2.0136    0.8081   -0.5653
H                    -1.7186   -0.9243    0.9447
H                     0.0171   -1.6934    1.3538
H                    -1.2335   -1.0847   -1.4147
H                     0.5022   -1.8537   -1.0056

