%nproc=32
%mem=180GB
%chk=B3LYP6-31Gdp.Frag_818.chk
#P OPT Freq B3LYP/6-31G(d,p)

Frag_818

0 1
C                    -1.37493  -0.16199  -0.14095
O                    -0.265     0.04136   0.74247
C                     0.92106   0.10669   0.13606
O                     1.12855   0.01259  -1.04655
O                     1.86137   0.29793   1.07807
H                    -1.45114   0.65819  -0.85894
H                    -2.25596  -0.19188   0.49964
H                    -1.26591  -1.10255  -0.68636
H                     2.70196   0.33986   0.60385

