%nproc=32
%mem=180GB
%chk=B3LYP6-31Gdp.Frag_968.chk
#P OPT Freq B3LYP/6-31G(d,p)

Frag_968

0 1
C                     1.7403   -0.19511  -0.01775
N                     0.54778   0.36266  -0.63323
N                     0.33455   1.73509  -0.33514
C                    -0.70047  -0.38998  -0.41725
C                    -1.08267  -0.57191   1.0654
O                    -1.73691   0.27001  -1.08369
O                    -0.46723  -1.63141  -1.02395
H                     1.78015  -1.26485  -0.22567
H                     2.62498   0.27828  -0.45624
H                     1.78015  -0.04162   1.07671
H                     0.92136   2.28611  -0.95367
H                     0.61183   1.95401   0.62599
H                    -2.04771  -1.08346   1.13036
H                    -1.1983    0.40169   1.55179
H                    -0.33693  -1.15856   1.60862
H                    -1.51123   1.21166  -1.0169
H                    -1.25955  -2.16282  -0.89557

