%nproc=32
%mem=180GB
#P OPT=calcfc Freq B3LYP/6-31G**

Frag_349

0 1
C                    -1.4147    0.0672   -0.0008
N                    -0.0096    0.4164   -0.151
C                     0.9917   -0.6028   -0.2211
N                     2.2411   -0.2946   -0.3545
H                    -1.7422   -0.5529   -0.8618
H                    -1.5625   -0.5005    0.942
H                    -2.0314    0.9899    0.0338
H                     0.2627    1.424    -0.2074
H                     0.7079   -1.6459   -0.1625
H                     2.5569    0.6992   -0.4149

