%nproc=32
%mem=180GB
%chk=B3LYP6-31Gdp.Frag_724.chk
#P OPT Freq B3LYP/6-31G(d,p)

Frag_724

0 1
C                     1.97401  -0.50371   0.85798
C                     1.14578   0.26763   0.16147
C                    -0.2976   -0.0501   -0.19262
C                    -1.17507   1.19013   0.06317
N                    -0.44398  -0.40806  -1.6167
N                    -0.74108  -1.23597   0.54305
H                     3.00393  -0.2125    1.03693
H                     1.65048  -1.45835   1.25786
H                     1.50171   1.2166   -0.23962
H                    -1.16076   1.45753   1.12426
H                    -0.82171   2.06011  -0.50338
H                    -2.20522   0.98204  -0.24045
H                     0.19141  -1.17811  -1.81212
H                    -0.14363   0.36991  -2.19784
H                    -1.67606  -1.47198   0.2231
H                    -0.80199  -1.02506   1.53472

