%nproc=32
%mem=180GB
%chk=B3LYP6-31Gdp.Frag_632.chk
#P OPT Freq B3LYP/6-31G(d,p)

Frag_632

0 1
C                     1.52318   0.80434  -0.05845
C                     0.26272  -0.07336  -0.00662
C                     0.20243  -0.94102  -1.28284
C                     0.35223  -0.98378   1.24
C                    -1.00746   0.79861   0.08293
N                    -1.07251   2.07434   0.12303
N                    -2.19759   0.08837   0.06461
H                     1.62223   1.4254    0.83754
H                     1.52117   1.46035  -0.93455
H                     2.41387   0.17149  -0.1225
H                    -0.67192  -1.59636  -1.28763
H                     1.09858  -1.56638  -1.3582
H                     0.14928  -0.31375  -2.17807
H                     1.28205  -1.56155   1.21653
H                    -0.46948  -1.70551   1.29359
H                     0.34349  -0.39402   2.16209
H                    -0.14999   2.49351   0.05255
H                    -3.0003    0.65205   0.30513
H                    -2.2023   -0.83271   0.47085

