%nproc=32
%mem=180GB
%chk=B3LYP6-31Gdp.Frag_510.chk
#P OPT Freq B3LYP/6-31G(d,p)

Frag_510

0 1
C                    -1.86665  -0.62824  -0.31145
N                    -0.5127   -0.83506   0.18606
C                     0.31773   0.10579   0.05345
C                     1.73893  -0.00374   0.53157
O                    -0.0213    1.29559  -0.53791
H                    -2.45856  -1.52629  -0.11921
H                    -1.88069  -0.42816  -1.39076
H                    -2.35821   0.22272   0.17778
H                     2.44192   0.12493  -0.30059
H                     1.96156   0.77117   1.27535
H                     1.89702  -0.98276   0.98128
H                     0.74075   1.88396  -0.54556

