%nproc=32
%mem=180GB
%chk=B3LYP6-31Gdp.Frag_1139.chk
#P OPT Freq B3LYP/6-31G(d,p)

Frag_1139

0 1
C                    -1.60779   0.85798   0.45935
C                    -0.64018  -0.01759  -0.353
N                    -1.0898   -1.42067  -0.44615
N                    -0.6283    0.48799  -1.72512
C                     0.80225  -0.03774   0.29336
N                     1.79135  -0.74006  -0.52981
N                     1.28367   1.33524   0.40197
N                     0.69937  -0.67526   1.61249
H                    -2.60745   0.79095   0.02138
H                    -1.30832   1.91063   0.43829
H                    -1.6393    0.53179   1.50158
H                    -1.54699  -1.68949   0.42045
H                    -1.81088  -1.45736  -1.16235
H                    -0.04268  -0.11866  -2.29413
H                    -0.17715   1.39956  -1.72027
H                     1.94755  -0.21936  -1.38895
H                     1.39409  -1.63843  -0.79587
H                     0.85223   1.77367   1.20932
H                     2.28412   1.30555   0.58069
H                     0.40216  -1.64074   1.48532
H                     1.64205  -0.7379    1.99186

