%nproc=32
%mem=180GB
#P OPT=calcfc Freq B3LYP/6-31G**

Frag_402

0 1
C                    -0.8516    0.3848    0.3784
N                    -0.1021   -0.8669    0.3701
N                     1.2447   -0.9567   -0.0299
N                     1.9217    0.0501   -0.4185
H                    -1.8881    0.2001    0.7314
H                    -0.896     0.8048   -0.6483
H                    -0.3669    1.1102    1.0648
H                    -0.5864   -1.7403    0.6753
H                     1.5247    1.0137   -0.4677

