%nproc=32
%mem=180GB
%chk=B3LYP6-31Gdp.Frag_684.chk
#P OPT Freq B3LYP/6-31G(d,p)

Frag_684

0 1
C                     1.81744  -0.22526  -0.03917
C                     0.42869  -0.61959   0.31752
N                    -0.5194    0.29251   0.43269
C                    -1.878    -0.14844   0.78763
N                    -0.45696   1.59503   0.27727
H                     2.25114   0.46952   0.6967
H                     2.46164  -1.1054   -0.08939
H                     1.86426   0.28405  -1.01422
H                     0.14758  -1.6463    0.49238
H                    -2.55538   0.1666   -0.0069
H                    -1.90603  -1.23017   0.91013
H                    -2.16604   0.35129   1.71322
H                     0.51117   1.81616   0.03475

