%nproc=32
%mem=180GB
%chk=B3LYP6-31Gdp.Frag_940.chk
#P OPT Freq B3LYP/6-31G(d,p)

Frag_940

0 1
C                    -0.99725  -1.36479   0.49753
C                    -0.59967  -0.00261  -0.09536
C                    -1.06022   1.13574   0.8246
N                    -1.20164   0.22961  -1.42772
C                     0.93968   0.089    -0.36649
C                     1.83386   0.06568   0.86975
O                     1.22246   1.27236  -1.06286
O                     1.22708  -1.04147  -1.19632
H                    -0.55531  -1.52584   1.48621
H                    -2.08567  -1.41619   0.61324
H                    -0.67607  -2.18018  -0.15394
H                    -2.15485   1.16065   0.87012
H                    -0.69658   0.99483   1.84531
H                    -0.7064    2.10114   0.45655
H                    -1.01462  -0.57575  -2.01763
H                    -2.20835   0.3287   -1.34707
H                     2.87708   0.14325   0.54847
H                     1.71243  -0.86829   1.42144
H                     1.62554   0.90985   1.53021
H                     0.4594    1.37971  -1.6598
H                     2.05931  -0.83549  -1.63623

