%nproc=32
%mem=180GB
%chk=B3LYP6-31Gdp.Frag_679.chk
#P OPT Freq B3LYP/6-31G(d,p)

Frag_679

0 1
C                    -1.31494   0.51805  -0.80843
C                    -0.29781  -0.40023  -0.21756
O                    -0.44185  -1.77476  -0.48963
C                     0.6903   -0.08584   0.63679
N                     0.97763   1.17361   1.17042
O                     1.50906  -1.04257   1.15104
H                    -1.22529   1.52985  -0.4024
H                    -1.23378   0.59395  -1.90381
H                    -2.3316    0.16743  -0.58883
H                    -0.24497  -1.92591  -1.42204
H                     1.91797   1.19573   1.54306
H                     0.84168   1.93041   0.5156
H                     1.1536   -1.87971   0.81589

