%nproc=32
%mem=180GB
#P OPT=calcfc Freq B3LYP/6-31G**

Frag_237

0 1
C                     1.1192   -0.7327    0.4535
C                     0.0357    0.2349   -0.0524
C                    -1.322    -0.4862   -0.1054
N                     0.3902    0.6874   -1.4011
N                    -0.0502    1.3836    0.8295
O                    -0.3272    1.2612    1.9852
H                     2.0975   -0.211     0.5281
H                     0.8564   -1.128     1.4584
H                     1.2297   -1.5895   -0.2456
H                    -1.5983   -0.8801    0.8963
H                    -2.1179    0.2146   -0.4372
H                    -1.2809   -1.336    -0.8205
H                    -0.3289    1.3729   -1.7305
H                     1.2968    1.2088   -1.3583

