%nproc=32
%mem=180GB
%chk=B3LYP6-31Gdp.Frag_1003.chk
#P OPT Freq B3LYP/6-31G(d,p)

Frag_1003

0 1
C                    -1.48211  -0.02982   0.05237
C                    -0.0949   -0.15251  -0.50353
C                     1.00617   0.08669   0.20219
O                     2.26085  -0.03222  -0.33043
H                    -2.02851  -0.97985  -0.00694
H                    -2.07723   0.70803  -0.50056
H                    -1.46686   0.27787   1.10313
H                     0.01492  -0.45406  -1.54242
H                     0.95953   0.39208   1.24679
H                     2.90824   0.18379   0.3445

