%nproc=32
%mem=180GB
%chk=B3LYP6-31Gdp.Frag_922.chk
#P OPT Freq B3LYP/6-31G(d,p)

Frag_922

0 1
C                     1.77011   0.96826   0.40316
C                     0.94413   0.11899  -0.21164
N                     1.33693  -1.04128  -0.88758
C                    -0.57431   0.26075  -0.13042
C                    -1.17151  -0.74515   0.86346
O                    -1.04868  -0.00911  -1.44634
O                    -0.88381   1.57982   0.24921
H                     2.84626   0.83899   0.35584
H                     1.38125   1.80172   0.96737
H                     2.32203  -1.06166  -1.11279
H                     0.76378  -1.21976  -1.70195
H                    -0.81597  -0.53414   1.87497
H                    -2.26888  -0.68207   0.85548
H                    -0.88049  -1.76179   0.59404
H                    -2.00813  -0.0829   -1.41095
H                    -1.71269   1.56933   0.73805

