%nproc=32
%mem=180GB
#P OPT Freq B3LYP/6-31G**

Frag_278

0 1
C                     1.3532   -1.3627   -0.7519
N                     0.3691   -1.263     0.0872
C                    -0.3749   -0.0625    0.3526
C                    -1.3636   -0.1148    1.2456
C                    -0.0589    1.2322   -0.3519
H                     1.8492   -2.315    -0.879
H                     1.6974   -0.5181   -1.3338
H                    -1.5942   -1.0426    1.7542
H                    -1.956     0.7599    1.4837
H                     0.9872    1.5303   -0.1306
H                    -0.1792    1.0986   -1.4472
H                    -0.7291    2.0578   -0.0289

