%nproc=32
%mem=180GB
%chk=B3LYP6-31Gdp.Frag_860.chk
#P OPT Freq B3LYP/6-31G(d,p)

Frag_860

0 1
N                     1.80561  -0.71344  -0.00489
N                     0.61467  -1.03669   0.00771
C                    -0.36694   0.06163   0.00197
N                    -0.00913   1.26662  -0.01491
O                    -1.60814  -0.4306    0.01696
H                     1.88221   0.33289  -0.01779
H                    -0.79112   1.91704  -0.01683
H                    -1.52716  -1.39735   0.02779

