%nproc=32
%mem=180GB
#P OPT Freq B3LYP/6-31G**

Frag_246

0 1
C                    -1.0178   -0.2879   -0.713
C                     0.1771    0.0786    0.1807
N                     1.321    -0.7648   -0.1699
O                    -0.1479   -0.121     1.5364
C                     0.5405    1.4915   -0.0439
N                     0.8254    2.5994   -0.2198
H                    -1.3272   -1.3384   -0.5256
H                    -1.8853    0.3743   -0.5009
H                    -0.7465   -0.1854   -1.7862
H                     2.1184   -0.535     0.4684
H                     1.0732   -1.7635    0.0211
H                    -0.9309    0.452     1.7525

