%nproc=32
%mem=180GB
%chk=B3LYP6-31Gdp.Frag_988.chk
#P OPT Freq B3LYP/6-31G(d,p)

Frag_988

0 1
C                     1.44787  -0.02965   0.19742
C                     0.2456    0.00523   0.16983
N                    -1.10187   0.05571   0.06345
H                     2.50656  -0.06321   0.23821
H                    -1.57082  -0.80805   0.30599
H                    -1.52733   0.83996   0.5411

