%nproc=32
%mem=180GB
#P OPT Freq B3LYP/6-31G**

Frag_134

0 1
C                     0.6316    0.6748   -0.2603
C                     1.1123   -0.5346    0.2009
N                     0.0888   -1.2795    0.6615
N                    -1.0209   -0.5769    0.5046
C                    -0.7286    0.6113   -0.0508
H                     1.197     1.4905   -0.6904
H                     2.1462   -0.8524    0.2007
H                    -1.9716   -0.9109    0.7769
H                    -1.4547    1.3779   -0.2867

