%nproc=128
%mem=128GB
#P OPT=calcfc Freq B3LYP/6-31G**

Frag_83

0 1
C                     1.1795    0.187     0.
N                     0.146    -0.5458    0.
C                    -1.1533    0.1298    0.
H                     1.1645    1.2888    0.
H                     2.1647   -0.2839    0.
H                    -1.9536   -0.6139    0.
H                    -1.2775    0.7643    0.8867
H                    -1.2775    0.7643   -0.8867

