%nproc=32
%mem=180GB
#P OPT=calcfc Freq B3LYP/6-31G**

Frag_149

0 1
C                    -0.3537    0.8637    0.9079
C                    -0.2027   -0.2321   -0.1143
C                    -1.3524   -1.1464   -0.4121
N                     0.9117   -0.4182   -0.7618
N                     2.0688    0.3593   -0.5868
H                    -0.1853    1.8509    0.4287
H                     0.3802    0.7168    1.7279
H                    -1.37      0.8679    1.3539
H                    -1.6232   -1.0649   -1.4858
H                    -1.0599   -2.1946   -0.1917
H                    -2.2468   -0.8962    0.1957
H                     2.1139    1.1544    0.0876
H                     2.9196    0.1393   -1.1492

