%nproc=32
%mem=180GB
%chk=B3LYP6-31Gdp.Frag_560.chk
#P OPT Freq B3LYP/6-31G(d,p)

Frag_560

0 1
C                    -1.73032  -0.59671   0.5935
C                    -0.89293   0.05353  -0.22087
N                    -1.30453   1.02503  -1.1448
C                     0.5994   -0.23432  -0.28325
C                     1.39734   0.81122   0.5135
N                     0.89739  -1.5602    0.25981
H                    -1.36181  -1.37968   1.24008
H                    -2.78924  -0.36194   0.62498
H                    -0.61111   1.73181  -1.34835
H                    -2.19401   1.45179  -0.92442
H                     0.88651  -0.13606  -1.34663
H                     1.182     1.82852   0.17198
H                     2.47448   0.64641   0.39838
H                     1.14427   0.73747   1.5742
H                     0.41122  -2.26892  -0.28092
H                     1.89144  -1.74784   0.17251

