%nproc=32
%mem=180GB
%chk=B3LYP6-31Gdp.Frag_445.chk
#P OPT Freq B3LYP/6-31G(d,p)

Frag_445

0 1
C                     1.0801   -0.24095  -0.37483
C                    -0.24388   0.33629   0.04282
N                    -0.62425   1.55252   0.00675
C                    -1.26803  -0.63052   0.57571
O                    -1.07423  -1.81617   0.67792
H                     1.75327   0.53565  -0.74508
H                     0.93467  -0.99702  -1.15315
H                     1.55032  -0.75792   0.46789
H                     0.11254   2.16017  -0.3634
H                    -2.22042  -0.14215   0.86547

