%nproc=32
%mem=180GB
%chk=B3LYP6-31Gdp.Frag_663.chk
#P OPT Freq B3LYP/6-31G(d,p)

Frag_663

0 1
C                    -1.40921   0.10017   0.81558
C                    -0.74012   0.14825  -0.56024
O                    -0.93042   1.4143   -1.17811
C                     0.78149  -0.09472  -0.52359
N                     1.02372  -1.53464  -0.3539
N                     1.43604   0.81641   0.41636
H                    -2.49219   0.23612   0.71649
H                    -1.25575  -0.86488   1.31162
H                    -1.0259    0.9008    1.45419
H                    -1.15676  -0.65231  -1.18889
H                    -1.87539   1.59408  -1.19437
H                     1.14715   0.17192  -1.5208
H                     2.02117  -1.71733  -0.41989
H                     0.7531   -1.82216   0.58405
H                     1.28233   0.50463   1.37152
H                     2.44064   0.79926   0.27006

