%nproc=32
%mem=180GB
%chk=B3LYP6-31Gdp.Frag_1126.chk
#P OPT Freq B3LYP/6-31G(d,p)

Frag_1126

0 1
C                    -0.99594  -0.93524   0.02746
C                    -0.08427   0.20093  -0.42943
N                    -0.79586   1.46446  -0.39799
N                     1.16984   0.31655   0.35327
O                     1.86699  -0.94667   0.29239
H                    -0.44514  -1.87744   0.03493
H                    -1.36443  -0.74473   1.04428
H                    -1.86017  -1.02639  -0.63574
H                     0.23998   0.01261  -1.46021
H                    -1.19399   1.62263   0.52411
H                    -0.14566   2.22512  -0.57486
H                     0.90527   0.38912   1.33813
H                     2.7034   -0.70105  -0.11646

