%nproc=32
%mem=180GB
%chk=B3LYP6-31Gdp.Frag_745.chk
#P OPT Freq B3LYP/6-31G(d,p)

Frag_745

0 1
C                    -1.27352  -0.58224   0.22551
N                     0.01348  -0.10199  -0.38258
C                     0.09369   1.39248  -0.25378
C                     1.16845  -0.72439   0.34934
O                     0.05945  -0.44962  -1.68488
H                    -1.29896  -1.66216   0.0863
H                    -2.07797  -0.1272   -0.35077
H                    -1.35081  -0.31954   1.28605
H                     1.02664   1.6953   -0.72725
H                     0.05791   1.7183    0.79127
H                    -0.74403   1.7975   -0.81985
H                     1.16881  -0.46663   1.4139
H                     1.0827   -1.80079   0.20683
H                     2.07417  -0.36893  -0.14019

