%nproc=32
%mem=180GB
%chk=B3LYP6-31Gdp.Frag_1017.chk
#P OPT Freq B3LYP/6-31G(d,p)

Frag_1017

0 1
N                    -0.8712    0.89888   0.18281
C                    -0.76215  -0.36166   0.14707
O                     0.36187  -1.01774   0.46658
N                     1.4441   -0.1686    0.92309
H                    -1.80296   1.2003   -0.08511
H                    -1.5243   -1.09779  -0.12251
H                     2.10747  -0.22957   0.14929
H                     1.04716   0.77628   0.87117

