%nproc=32
%mem=180GB
#P OPT Freq B3LYP/6-31G**

Frag_152

0 1
C                     0.2501   -1.2716    0.7524
C                    -0.1798   -0.0165   -0.0369
C                    -1.3834    0.6371    0.6683
N                    -0.5746   -0.386    -1.4036
C                     0.9796    1.0072   -0.091
O                     2.1229    0.4558   -0.6918
H                     1.1037   -1.7784    0.2538
H                    -0.5894   -1.9967    0.8177
H                     0.5587   -0.9982    1.7846
H                    -2.2335   -0.0758    0.7344
H                    -1.1129    0.9531    1.6992
H                    -1.725     1.5309    0.103
H                     0.2043   -0.9088   -1.8665
H                    -1.3871   -1.0447   -1.3642
H                     1.2498    1.3211    0.9406
H                     0.6566    1.9257   -0.6358
H                     2.0601    0.6458   -1.664

