%nproc=32
%mem=180GB
%chk=B3LYP6-31Gdp.Frag_438.chk
#P OPT Freq B3LYP/6-31G(d,p)

Frag_438

0 1
C                    -1.91604   0.04398  -0.22149
C                    -0.43159   0.17984  -0.5493
C                     0.48649  -0.19871   0.60739
C                     1.97929  -0.08515   0.34548
O                     0.05252  -0.56878   1.67414
H                    -2.53071   0.3263   -1.08082
H                    -2.188     0.68105   0.62387
H                    -2.16072  -0.98404   0.05732
H                    -0.15609  -0.44144  -1.41311
H                    -0.1831    1.20674  -0.85228
H                     2.26966  -0.72299  -0.49699
H                     2.53582  -0.37906   1.23611
H                     2.24238   0.94226   0.06958

