%nproc=32
%mem=180GB
%chk=B3LYP6-31Gdp.Frag_507.chk
#P OPT Freq B3LYP/6-31G(d,p)

Frag_507

0 1
C                     1.3932    0.27211  -0.36548
C                     0.3849   -0.59586  -0.32018
C                    -0.95918  -0.29195   0.21747
O                    -1.86827  -1.08615   0.25451
O                    -1.0824    0.97883   0.6728
H                     2.35966  -0.00651  -0.77171
H                     1.28249   1.28582   0.0018
H                     0.48174  -1.61283  -0.68401
H                    -1.99204   1.05633   0.9948

