%nproc=128
%mem=128GB
#P OPT Freq B3LYP/6-31G**

Frag_48

0 1
N                    -1.2705   -0.1566   -0.0418
C                    -0.0015    0.542     0.0596
N                     1.1682   -0.3348   -0.1054
H                    -1.3887   -0.7787    0.7554
H                    -1.2402   -0.7563   -0.8647
H                    -0.0142    1.0971    1.0116
H                     0.0453    1.2879   -0.7425
H                     2.0112    0.2244   -0.2263
H                     1.3124   -0.8863    0.7392

