%nproc=32
%mem=180GB
#P OPT Freq B3LYP/6-31G**

Frag_174

0 1
C                     1.2337    0.0142    0.2491
N                    -0.1775   -0.0446    0.6537
C                    -1.0386    0.632    -0.3258
O                    -0.5652   -1.3485    0.7851
H                     1.3864   -0.4445   -0.753
H                     1.8575   -0.5287    0.9907
H                     1.5771    1.0705    0.2226
H                    -0.7822    1.712    -0.3743
H                    -2.1004    0.5474   -0.0106
H                    -0.9279    0.1847   -1.3385
H                    -0.4628   -1.7945   -0.0991

