%nproc=32
%mem=180GB
%chk=B3LYP6-31Gdp.Frag_468.chk
#P OPT Freq B3LYP/6-31G(d,p)

Frag_468

0 1
C                     1.44748  -0.12383   0.02984
N                     0.22805   0.37042   0.03736
C                    -0.89493  -0.58589  -0.07389
N                    -0.04534   1.64706   0.13672
H                     2.27039   0.56894   0.11065
H                     1.58378  -1.18747  -0.05542
H                    -0.53004  -1.60915  -0.14965
H                    -1.47397  -0.32871  -0.9634
H                    -1.52315  -0.47761   0.81282
H                    -1.06236   1.72633   0.11507

