%nproc=32
%mem=180GB
#P OPT Freq B3LYP/6-31G**

Frag_209

0 1
C                     1.0396   -0.1395   -0.4023
N                     0.008    -1.0015   -0.5055
C                    -1.0393   -0.163    -0.6182
O                    -0.6512    1.0873   -0.5837
N                     0.6384    1.1443   -0.45
H                     2.0716   -0.4446   -0.2937
H                    -2.0671   -0.483    -0.7235

