%nproc=32
%mem=180GB
%chk=B3LYP6-31Gdp.Frag_1078.chk
#P OPT Freq B3LYP/6-31G(d,p)

Frag_1078

0 1
C                    -1.12766  -0.9106   -0.0507
C                     0.13397  -0.09008   0.1134
N                     0.99357  -0.18825  -1.03409
O                     0.70288  -0.3635    1.3515
N                    -0.21538   1.44504   0.13937
O                     0.67316   2.15476   0.60152
O                    -1.27665   1.82942  -0.30032
H                    -0.85289  -1.9691   -0.04354
H                    -1.62157  -0.66627  -0.98938
H                    -1.80637  -0.72459   0.78208
H                     1.87156   0.29392  -0.8673
H                     1.19378  -1.16185  -1.23525
H                     1.3316    0.35108   1.5326

