%nproc=32
%mem=180GB
%chk=B3LYP6-31Gdp.Frag_903.chk
#P OPT Freq B3LYP/6-31G(d,p)

Frag_903

0 1
C                    -1.43625   0.09905  -0.3866
N                    -0.15864   0.11319   0.29919
O                    -0.18262  -0.63194   1.49048
C                     1.01305   0.09472  -0.42278
O                     1.09793   0.41213  -1.5883
O                     2.07202  -0.23859   0.3494
H                    -1.29981   0.58764  -1.35033
H                    -1.79063  -0.92712  -0.54202
H                    -2.17363   0.6454    0.20684
H                     0.02261   0.00981   2.18238
H                     2.83587  -0.16418  -0.23816

