%nproc=32
%mem=180GB
%chk=B3LYP6-31Gdp.Frag_822.chk
#P OPT Freq B3LYP/6-31G(d,p)

Frag_822

0 1
N                     1.14152  -0.48242  -0.11197
N                     0.04377   0.35797   0.08986
C                    -1.24335  -0.09092  -0.03218
O                    -1.60181  -1.2057   -0.31376
H                     1.7033   -0.53017   0.73185
H                     1.71548  -0.12935  -0.8708
H                     0.18322   1.33033   0.3341
H                    -1.94224   0.75026   0.1728

