%nproc=32
%mem=180GB
%chk=B3LYP6-31Gdp.Frag_1082.chk
#P OPT Freq B3LYP/6-31G(d,p)

Frag_1082

0 1
C                     1.87425   0.25395  -0.56998
N                     0.83538  -0.46348  -0.23953
O                     0.71148  -1.7029   -0.40641
C                    -0.34541   0.23467   0.42638
C                    -1.59127  -0.01164  -0.39927
O                    -0.54472  -0.30196   1.69399
H                     2.70342  -0.24798  -1.04659
H                     1.87209   1.31315  -0.36681
H                    -0.08193   1.30006   0.46182
H                    -2.45163   0.42523   0.11203
H                    -1.73205  -1.08817  -0.50515
H                    -1.49266   0.44133  -1.38886
H                     0.24303  -0.15226   2.22836

