%nproc=32
%mem=180GB
#P OPT=calcfc Freq B3LYP/6-31G**

Frag_418

0 1
C                    -1.5974   -0.2011    0.4972
C                    -0.1894    0.3958    0.474
O                    -0.2623    1.7236    0.0219
C                     0.7492   -0.4274   -0.4297
O                     2.0593    0.0709   -0.342
O                     0.3156   -0.3486   -1.7613
H                    -1.5666   -1.2489    0.8651
H                    -2.2437    0.3907    1.1797
H                    -2.0475   -0.1851   -0.5184
H                     0.1999    0.3712    1.5191
H                     0.5586    2.1822    0.3404
H                     0.7304   -1.4948   -0.0997
H                     2.4246   -0.2357    0.5289
H                     0.8692   -0.9928   -2.275

