%nproc=32
%mem=180GB
%chk=B3LYP6-31Gdp.Frag_1103.chk
#P OPT Freq B3LYP/6-31G(d,p)

Frag_1103

0 1
N                     1.27604   0.37159   0.18868
C                    -0.1505    0.08495   0.19516
N                    -0.7267   -0.68054  -0.89991
O                    -0.74884   1.35202   0.21117
O                    -0.44166  -0.68162   1.3316
H                     1.7932   -0.46408  -0.06081
H                     1.47932   1.0958   -0.4918
H                    -0.36905  -0.33807  -1.78463
H                    -0.47914  -1.6595   -0.80452
H                    -1.68822   1.18782   0.06819
H                     0.05565  -0.26836   2.04698

