%nproc=128
%mem=128GB
#P OPT Freq B3LYP/6-31G**

Frag_45

0 1
C                    -2.0367   -0.0014   -0.1572
C                    -0.7243   -0.6235    0.307
N                     0.4408    0.0031   -0.3244
C                     1.6693   -0.7409   -0.0755
N                     0.5372    1.3604    0.1166
H                    -2.8856   -0.4898    0.3325
H                    -2.1495   -0.1107   -1.24
H                    -2.0569    1.0636    0.0829
H                    -0.6516   -0.5761    1.4119
H                    -0.6986   -1.6859    0.0376
H                     2.4985   -0.2674   -0.6112
H                     1.9369   -0.7872    0.9993
H                     1.5681   -1.7661   -0.4452
H                     1.046     1.4058    1.0092
H                     1.0962    1.8638   -0.5683

