%nproc=32
%mem=180GB
#P OPT Freq B3LYP/6-31G**

Frag_265

0 1
N                     1.9136   -1.3027    1.333
C                     1.0837   -0.7398    0.755
C                     0.0308   -0.0273    0.0218
N                    -1.0194   -0.7993   -0.629
C                     0.4154    1.1294   -0.6606
C                    -0.3857    1.1954    0.5539
H                    -1.489    -1.3829    0.1011
H                    -0.5642   -1.459    -1.3009
H                     0.9277    1.6172   -1.4824
H                    -0.913     1.7689    1.3081

