%nproc=32
%mem=180GB
#P OPT=calcfc Freq B3LYP/6-31G**

Frag_180

0 1
C                     1.4062   -0.2769   -0.1092
C                     0.0543    0.3552    0.0504
C                    -1.2014   -0.4717   -0.0125
N                    -0.0204    1.6239    0.2435
H                     2.0114   -0.096     0.8039
H                     1.3275   -1.3724   -0.269
H                     1.9253    0.1708   -0.9826
H                    -1.8436   -0.1106   -0.843
H                    -0.9741   -1.5446   -0.1837
H                    -1.7574   -0.3774    0.9438
H                    -0.9277    2.0997    0.3583

