%nproc=128
%mem=128GB
#P OPT Freq B3LYP/6-31G**

Frag_50

0 1
C                     1.5126   -0.2705    0.1069
C                     0.0001   -0.0001   -0.0001
C                    -0.577     0.2524    1.4054
C                    -0.6968   -1.221    -0.6293
C                    -0.2388    1.2391   -0.883
H                     1.7145   -1.1484    0.7311
H                     2.0369    0.583     0.5517
H                     1.9523   -0.4548   -0.88
H                    -0.0994    1.1172    1.88
H                    -1.6544    0.4487    1.3612
H                    -0.4222   -0.6142    2.0583
H                    -0.5444   -2.1204   -0.0217
H                    -0.3063   -1.4259   -1.6326
H                    -1.7769   -1.0576   -0.7183
H                    -1.3086    1.4582   -0.9762
H                     0.1603    1.0886   -1.8926
H                     0.2477    2.1257   -0.4605

