%nproc=32
%mem=180GB
#P OPT=calcfc Freq B3LYP/6-31G**

Frag_202

0 1
N                     1.3154    0.2862   -0.0344
N                     0.3276   -0.4941    0.1314
N                    -0.9815   -0.0223   -0.0217
H                     2.2884   -0.0723    0.0813
H                    -1.7857   -0.6724    0.117
H                    -1.1643    0.975    -0.2735

