%nproc=32
%mem=180GB
%chk=B3LYP6-31Gdp.Frag_813.chk
#P OPT Freq B3LYP/6-31G(d,p)

Frag_813

0 1
C                    -0.65886   1.56231  -0.45313
C                    -0.44746   0.3054   -0.06092
C                    -1.48299  -0.78236  -0.15905
N                     0.75184  -0.11426   0.59172
N                     1.26708  -1.29438   0.03216
O                     1.75099   0.92309   0.53419
H                    -1.62309   1.84457  -0.85666
H                     0.10401   2.32204  -0.3718
H                    -2.44302  -0.35627  -0.45727
H                    -1.60394  -1.29023   0.8034
H                    -1.19415  -1.54802  -0.88404
H                     1.97221  -1.64801   0.67081
H                     1.73341  -1.07672  -0.85212
H                     1.87388   1.15293   1.46271

