%nproc=32
%mem=180GB
%chk=B3LYP6-31Gdp.Frag_1156.chk
#P OPT Freq B3LYP/6-31G(d,p)

Frag_1156

0 1
C                    -0.81941   1.14278   0.19184
N                    -0.21904  -0.01395  -0.46617
C                    -1.0853   -1.18397  -0.4034
C                     1.13442  -0.29465  -0.02984
O                     1.98917   0.74758  -0.43137
O                     1.31163  -0.45344   1.35241
H                    -1.07629   0.95149   1.24712
H                    -1.73672   1.4234   -0.3343
H                    -0.12809   1.9879    0.14953
H                    -2.03854  -0.95643  -0.89075
H                    -1.29518  -1.51041   0.62881
H                    -0.62297  -2.01896  -0.93887
H                     1.42268  -1.25695  -0.47612
H                     1.70109   1.00801  -1.31385
H                     1.46256   0.42768   1.71496

