%nproc=128
%mem=128GB
#P OPT Freq B3LYP/6-31G**

Frag_54

0 1
C                     1.0187    1.4903    0.
C                     0.6644    0.2071    0.
C                     1.5545   -0.994     0.
N                    -0.7922   -0.0978    0.
O                    -1.5951    0.8327    0.
O                    -1.0998   -1.2904    0.0001
H                     2.0665    1.7676    0.
H                     0.2701    2.2721    0.0001
H                     1.3716   -1.6193   -0.8783
H                     1.372    -1.6191    0.8785
H                     2.5989   -0.6755   -0.0003

