%nproc=32
%mem=180GB
%chk=B3LYP6-31Gdp.Frag_594.chk
#P OPT Freq B3LYP/6-31G(d,p)

Frag_594

0 1
C                     1.75175   0.00839  -0.93454
C                     0.78323  -0.3286    0.2007
N                     1.27221   0.32102   1.43354
C                    -0.66022   0.20761  -0.05532
C                    -1.61196  -0.28037   1.05431
C                    -1.20495  -0.22152  -1.41886
O                    -0.61516   1.63     -0.05492
H                     2.77444  -0.2776   -0.66372
H                     1.73247   1.08181  -1.14172
H                     1.49651  -0.52724  -1.85099
H                     0.72662  -1.4244    0.30367
H                     2.28355   0.26593   1.48375
H                     0.91347  -0.14629   2.2588
H                    -1.68657  -1.37375   1.07247
H                    -1.28411   0.06082   2.04115
H                    -2.611     0.13049   0.88492
H                    -2.24165   0.11099  -1.52441
H                    -0.62799   0.22605  -2.23043
H                    -1.18398  -1.31105  -1.52789
H                    -0.00667   1.84779   0.66939

