%nproc=32
%mem=180GB
%chk=B3LYP6-31Gdp.Frag_514.chk
#P OPT Freq B3LYP/6-31G(d,p)

Frag_514

0 1
C                    -1.76151   0.27457  -0.85094
C                    -0.77723   0.48317   0.02195
O                    -1.07007   0.9775    1.26704
C                     0.67674   0.19463  -0.24283
C                     1.25697  -0.90658   0.66247
H                    -2.7905    0.49904  -0.59965
H                    -1.54807  -0.12943  -1.83082
H                    -0.25122   1.1461    1.74196
H                     0.7934   -0.08964  -1.29184
H                     1.25576   1.1205   -0.10541
H                     1.16751  -0.65452   1.72479
H                     0.72986  -1.85197   0.50496
H                     2.31846  -1.06347   0.45023

