%nproc=128
%mem=128GB
#P OPT Freq B3LYP/6-31G**

Frag_46

0 1
C                     1.1978   -0.6702    0.0715
N                     0.        0.0075   -0.4142
C                    -1.1978   -0.6702    0.0715
N                     0.        1.3501    0.2012
H                     1.2566   -0.7012    1.1731
H                     2.0895   -0.1577   -0.3068
H                     1.2083   -1.6913   -0.3199
H                    -1.2566   -0.7012    1.1731
H                    -1.2083   -1.6913   -0.3199
H                    -2.0895   -0.1577   -0.3068
H                     0.8002    1.8198   -0.2303
H                    -0.8002    1.8198   -0.2303

