%nproc=32
%mem=180GB
%chk=B3LYP6-31Gdp.Frag_572.chk
#P OPT Freq B3LYP/6-31G(d,p)

Frag_572

0 1
C                    -1.26255  -0.35952   0.10268
N                     0.0361    0.30193   0.21253
C                     1.21385  -0.51414  -0.07565
C                     0.09606   1.60135  -0.08098
N                     0.1517    2.74304  -0.29682
H                    -1.27032  -1.23492   0.75879
H                    -2.0464    0.32758   0.42425
H                    -1.47542  -0.68713  -0.92477
H                     1.23454  -0.8582   -1.11942
H                     2.11446   0.06858   0.12245
H                     1.20809  -1.38846   0.58196

