%nproc=32
%mem=180GB
%chk=B3LYP6-31Gdp.Frag_701.chk
#P OPT Freq B3LYP/6-31G(d,p)

Frag_701

0 1
C                    -0.7583    1.41245   0.45916
C                     0.03835   0.18762   0.00018
C                    -0.69256  -0.54128  -1.13685
C                     0.32122  -0.75095   1.18231
N                     1.35235   0.74083  -0.5242
N                     2.20232  -0.03296  -0.96569
H                    -0.91948   2.10049  -0.37575
H                    -1.73335   1.11677   0.85866
H                    -0.21411   1.95461   1.23787
H                    -0.12623  -1.40697  -1.49616
H                    -1.66305  -0.90518  -0.78643
H                    -0.86296   0.13113  -1.98301
H                     0.91196  -1.62169   0.87884
H                    -0.61946  -1.12103   1.60095
H                     0.86629  -0.22652   1.9729
H                     1.89701  -1.03722  -0.92298

