%nproc=32
%mem=180GB
%chk=B3LYP6-31Gdp.Frag_1038.chk
#P OPT Freq B3LYP/6-31G(d,p)

Frag_1038

0 1
C                    -1.32639  -0.4803   -0.77475
C                    -0.33071   0.02053   0.22704
N                    -0.85899   0.39075   1.4857
C                     0.96385   0.18904  -0.05883
O                     1.53846  -0.16091  -1.25531
O                     1.82705   0.76216   0.85149
H                    -2.13648   0.24624  -0.91016
H                    -1.79049  -1.41647  -0.43448
H                    -0.84975  -0.67032  -1.73624
H                    -0.12044   0.5877    2.1507
H                    -1.47522  -0.32172   1.86298
H                     1.93141   0.63122  -1.64624
H                     2.6277    0.22209   0.873

