%nproc=32
%mem=180GB
%chk=B3LYP6-31Gdp.Frag_1057.chk
#P OPT Freq B3LYP/6-31G(d,p)

Frag_1057

0 1
C                     0.27078  -1.32198   0.66154
C                    -0.06752   0.06356   0.08362
C                    -0.98076  -0.07299  -1.14169
C                    -0.732     0.94521   1.1505
N                     1.14462   0.81047  -0.33155
O                     1.92434  -0.00417  -1.23226
H                    -0.63867  -1.86594   0.93705
H                     0.82175  -1.9159   -0.07082
H                     0.88962  -1.22752   1.56153
H                    -1.91556  -0.57426  -0.87317
H                    -1.22181   0.91231  -1.5525
H                    -0.4896   -0.66165  -1.92062
H                    -1.66464   0.48877   1.49479
H                    -0.08184   1.06786   2.02482
H                    -0.95664   1.93803   0.75063
H                     1.75029   0.88198   0.48649
H                     1.94772   0.53632  -2.02835

