%nproc=32
%mem=180GB
#P OPT Freq B3LYP/6-31G**

Frag_218

0 1
C                     2.4873    0.2196    1.2881
C                     1.3065    0.1153    0.6766
N                     0.3758    1.2054    0.7396
C                    -0.5035    1.5322   -0.3797
C                    -1.6739    0.5515   -0.4748
C                    -1.259    -0.8104   -1.044
C                    -0.3819   -1.6103   -0.0788
N                     0.9804   -1.0857   -0.0373
H                     2.7539    1.1188    1.829
H                     3.2021   -0.593     1.2553
H                     0.4763    1.9154    1.5009
H                     0.0768    1.5478   -1.3281
H                    -0.9145    2.5538   -0.2261
H                    -2.4369    0.9888   -1.1551
H                    -2.1519    0.4279    0.5218
H                    -2.1836   -1.3967   -1.2376
H                    -0.7383   -0.683    -2.0185
H                    -0.3491   -2.6654   -0.4282
H                    -0.8203   -1.6134    0.9432
H                     1.7536   -1.7185   -0.3462

