%nproc=32
%mem=180GB
#P OPT=calcfc Freq B3LYP/6-31G**

Frag_136

0 1
C                     1.6887    0.5899    0.7569
C                     0.7321   -0.3205   -0.0354
N                     0.9608   -1.5916   -0.1082
N                    -0.441     0.255    -0.709
C                    -1.5178   -0.7445   -0.7569
N                    -0.88      1.3804   -0.0013
H                     1.6936    1.5672    0.3212
H                     1.3601    0.6541    1.7731
H                     2.677     0.181     0.7267
H                     0.3396   -2.1828   -0.6226
H                    -1.1823   -1.6046   -1.2977
H                    -2.3717   -0.3256   -1.2472
H                    -1.7833   -1.0308    0.2393
H                    -0.1475    2.0603    0.0313
H                    -1.1282    1.1128    0.9297

