%nproc=32
%mem=180GB
%chk=B3LYP6-31Gdp.Frag_949.chk
#P OPT Freq B3LYP/6-31G(d,p)

Frag_949

0 1
C                    -1.11183  -0.9263    0.07498
C                    -0.59369   0.29449   0.02153
O                    -1.27446   1.38594  -0.39685
O                     0.67672   0.69626   0.36005
N                     1.50287  -0.38128   0.82271
H                    -0.51971  -1.75792   0.41716
H                    -2.1374   -1.07096  -0.23086
H                    -0.67681   2.14118  -0.33939
H                     2.31441  -0.32877   0.20799
H                     1.81999  -0.05255   1.73409

