%nproc=32
%mem=180GB
#P OPT=calcfc Freq B3LYP/6-31G**

Frag_350

0 1
C                     1.9582   -0.2824   -0.3742
C                     0.6947    0.3095    0.1708
N                     0.7798    1.2824    1.0263
N                    -0.5815   -0.2195   -0.248
C                    -1.8505    0.3413    0.2122
O                    -0.6146   -1.2528   -1.1263
H                     2.0394   -1.3423   -0.0548
H                     1.9446   -0.2345   -1.4831
H                     2.8491    0.2708   -0.0066
H                    -0.0479    1.7462    1.4595
H                    -1.9327    0.2362    1.3145
H                    -2.7009   -0.1991   -0.2553
H                    -1.9168    1.4124   -0.0729
H                    -0.6209   -2.0683   -0.5622

