%nproc=32
%mem=180GB
#P OPT=calcfc Freq B3LYP/6-31G**

Frag_362

0 1
C                     2.1635   -0.077    -0.3679
N                     1.0294   -0.7      -0.2861
N                    -0.1845   -0.0579    0.0206
C                    -1.4022   -0.8594    0.0863
N                    -0.2303    1.3279    0.26
H                     3.0603   -0.6313   -0.6079
H                     2.2382    0.9897   -0.2017
H                    -2.2784   -0.2241    0.3364
H                    -1.2915   -1.6406    0.8671
H                    -1.5808   -1.3457   -0.8955
H                    -0.6268    1.4716    1.2166
H                    -0.8967    1.7469   -0.4279

