%nproc=32
%mem=180GB
%chk=B3LYP6-31Gdp.Frag_853.chk
#P OPT Freq B3LYP/6-31G(d,p)

Frag_853

0 1
N                     1.72121  -0.42448   0.53246
C                     0.79171   0.43047  -0.21086
C                    -0.63784  -0.098     0.02062
N                    -1.71231   0.73265  -0.4769
O                    -0.67473  -1.33512  -0.66132
O                    -0.86623  -0.24138   1.39102
H                     1.78299  -1.32819   0.07444
H                     2.65231  -0.02427   0.55507
H                     0.98063   0.48161  -1.29377
H                     0.85058   1.44427   0.19685
H                    -1.78505   1.57648   0.08156
H                    -1.53336   0.99211  -1.44141
H                    -1.56316  -1.68295  -0.5146
H                    -0.00685  -0.52328   1.74704

