%nproc=32
%mem=180GB
#P OPT=calcfc Freq B3LYP/6-31G**

Frag_310

0 1
C                    -0.4561   -1.0313   -0.5155
C                    -0.3504    0.3548    0.0578
N                    -1.515     1.1812    0.1103
N                     0.7751    0.8279    0.5102
N                     1.9875    0.1179    0.5151
H                     0.2129   -1.1282   -1.3962
H                    -1.4946   -1.2445   -0.8446
H                    -0.1759   -1.7811    0.2538
H                    -2.4356    0.8375   -0.2426
H                    -1.4605    2.1466    0.5051
H                     2.0688   -0.856     0.1489
H                     2.8437    0.5752    0.8977

