%nproc=32
%mem=180GB
%chk=B3LYP6-31Gdp.Frag_692.chk
#P OPT Freq B3LYP/6-31G(d,p)

Frag_692

0 1
C                     1.34102   0.21083  -0.08696
C                     0.00787   0.20416  -0.06194
C                    -0.88327  -0.92934   0.34265
N                    -0.74619   1.42711  -0.35302
O                    -0.13284   2.28707  -0.94307
H                     1.8664    1.1133   -0.37939
H                     1.92484  -0.66054   0.18564
H                    -1.54183  -1.22279  -0.48292
H                    -1.53331  -0.62786   1.17085
H                    -0.30269  -1.80204   0.64816

