%nproc=32
%mem=180GB
%chk=B3LYP6-31Gdp.Frag_1091.chk
#P OPT Freq B3LYP/6-31G(d,p)

Frag_1091

0 1
N                    -0.1026    1.34962   0.94594
C                    -0.01836   0.29805   0.23041
N                    -1.01748  -0.3581   -0.4617
C                     1.34509  -0.33776   0.01658
O                     2.35796   0.03926   0.53208
H                    -1.06768   1.68197   1.013
H                    -1.9738   -0.14608  -0.22401
H                    -0.85824  -1.31413  -0.74083
H                     1.33509  -1.21294  -0.67657

