%nproc=32
%mem=180GB
#P OPT=calcfc Freq B3LYP/6-31G**

Frag_288

0 1
C                    -1.5249    0.3128    0.6367
C                    -0.7223   -0.5713    0.0458
C                     0.6221   -0.2366   -0.4795
N                     1.2125   -1.0571   -1.2899
N                     1.3057    0.9599   -0.0915
H                    -1.252     1.3508    0.7601
H                    -2.5006    0.0001    0.9856
H                    -1.091    -1.5816   -0.0864
H                     0.7683   -1.9503   -1.6013
H                     0.9529    1.5784    0.6703
H                     2.2292    1.1949   -0.5191

