%nproc=32
%mem=180GB
#P OPT=calcfc Freq B3LYP/6-31G**

Frag_358

0 1
C                    -1.5495   -0.9817   -0.1689
C                    -0.5329   -0.1136   -0.1482
N                    -0.8106    1.2852   -0.0046
C                     0.8646   -0.5899   -0.2931
N                     1.9665    0.2109    0.1401
O                     1.0956   -1.7229   -0.7965
H                    -2.5717   -0.638    -0.0728
H                    -1.382    -2.0463   -0.275
H                    -1.7843    1.6252    0.1629
H                    -0.0658    2.0036   -0.1364
H                     1.8257    1.0859    0.6903
H                     2.9444   -0.1183   -0.0204

