%nproc=32
%mem=180GB
%chk=B3LYP6-31Gdp.Frag_1105.chk
#P OPT Freq B3LYP/6-31G(d,p)

Frag_1105

0 1
C                    -0.48887   0.00204   0.0021
C                     0.96864  -0.00408  -0.0041
N                     2.12363  -0.00901  -0.00912
H                    -0.87392  -0.70072  -0.74149
H                    -0.86485  -0.2895    0.98632
H                    -0.86463   1.00117  -0.23372

