%nproc=32
%mem=180GB
%chk=B3LYP6-31Gdp.Frag_811.chk
#P OPT Freq B3LYP/6-31G(d,p)

Frag_811

0 1
C                    -1.45483  -0.23421   0.8539
C                    -0.3857    0.0208   -0.21486
N                    -0.38811  -0.96885  -1.30281
O                    -0.57366   1.30028  -0.80183
C                     1.02848   0.0344    0.43526
N                     2.0277    0.25301  -0.58604
O                     1.10242   1.0455    1.4163
H                    -1.34422  -1.23245   1.28894
H                    -1.37117   0.49751   1.66076
H                    -2.45532  -0.17623   0.40683
H                    -0.38989  -1.9097   -0.91602
H                    -1.24642  -0.86935  -1.83777
H                    -1.46952   1.59132  -0.60969
H                     1.15281  -0.90562   0.99928
H                     1.7664   -0.25204  -1.42696
H                     2.9385   -0.06179  -0.27362
H                     1.06261   1.86741   0.90815

