%nproc=32
%mem=180GB
%chk=B3LYP6-31Gdp.Frag_681.chk
#P OPT Freq B3LYP/6-31G(d,p)

Frag_681

0 1
C                     2.19492   0.14204   0.2317
C                     1.04192   0.19873  -0.42429
C                    -0.31802  -0.13999   0.14828
C                    -1.29949   1.02378  -0.05952
N                    -0.89431  -1.3462   -0.46858
O                    -0.15493  -0.40951   1.52875
H                     2.2291   -0.1347    1.27872
H                     3.13585   0.37201  -0.25721
H                     1.02016   0.48519  -1.47482
H                    -2.29566   0.73295   0.28842
H                    -1.37197   1.30877  -1.11497
H                    -0.96179   1.89138   0.51084
H                    -1.23104  -1.14437  -1.40546
H                    -0.16712  -2.05106  -0.56068
H                    -0.92754  -0.92911   1.77881

