%nproc=32
%mem=180GB
#P OPT=calcfc Freq B3LYP/6-31G**

Frag_363

0 1
C                    -1.1659    0.8888    0.628
N                    -0.4253   -0.3366    0.3405
N                    -1.1513   -1.4903   -0.0048
C                     1.0153   -0.3787    0.4049
N                     1.7808    0.7789    0.7533
O                     1.6199   -1.455     0.15
H                    -0.9616    1.2185    1.6684
H                    -0.8696    1.6858   -0.0862
H                    -2.2584    0.7155    0.5245
H                    -0.9124   -2.2383    0.6857
H                    -0.8267   -1.8032   -0.9482
H                     1.3326    1.6944    0.9736
H                     2.8226    0.7203    0.7924

