%nproc=128
%mem=128GB
#P OPT Freq B3LYP/6-31G**

Frag_98

0 1
C                    -1.5783   -0.8406   -0.0969
N                    -0.4103    0.0106   -0.2872
N                    -0.649     1.36      0.1132
C                     0.7881   -0.5034    0.3705
N                     1.9754    0.1059   -0.2022
H                    -1.3665   -1.8595   -0.436
H                    -2.4084   -0.4508   -0.6943
H                    -1.9149   -0.8925    0.9578
H                    -1.2751    1.3785    0.9263
H                    -1.1328    1.827    -0.6495
H                     0.7861   -0.285     1.4536
H                     0.7429   -1.6017    0.263
H                     2.7984   -0.1669    0.3282
H                     2.0992   -0.2204   -1.1572

