%nproc=32
%mem=180GB
%chk=B3LYP6-31Gdp.Frag_1040.chk
#P OPT Freq B3LYP/6-31G(d,p)

Frag_1040

0 1
C                     1.73732  -0.01225  -0.25685
C                     0.51768  -0.12627   0.65819
C                    -0.81368   0.05657  -0.08048
O                    -0.97464  -0.85155  -1.13637
O                    -1.91745  -0.17915   0.77513
O                    -0.83426   1.34436  -0.60414
H                     2.66087  -0.18246   0.30415
H                     1.68052  -0.75106  -1.06052
H                     1.7872    0.97959  -0.7124
H                     0.56903   0.62529   1.45596
H                     0.48334  -1.10824   1.14157
H                    -1.46785  -1.60108  -0.78531
H                    -1.84727   0.43167   1.5166
H                    -1.58092   1.37459  -1.21553

