%nproc=32
%mem=180GB
%chk=B3LYP6-31Gdp.Frag_762.chk
#P OPT Freq B3LYP/6-31G(d,p)

Frag_762

0 1
C                    -1.72338  -0.71472   0.13713
C                    -0.51277   0.1952   -0.04542
N                    -0.4628    1.13683   1.09016
O                    -0.69309   0.93953  -1.2267
C                     0.78861  -0.63268  -0.19773
N                     1.88503   0.26649  -0.58053
H                    -1.64404  -1.29163   1.06461
H                    -1.80971  -1.41012  -0.70196
H                    -2.62581  -0.10239   0.18747
H                    -0.18036   0.65808   1.94218
H                     0.23008   1.85557   0.90031
H                     0.20553   1.17672  -1.50737
H                     0.64901  -1.35325  -1.01031
H                     0.97919  -1.20402   0.72444
H                     2.64339  -0.24822  -1.01223
H                     2.27111   0.72861   0.23587

