%nproc=32
%mem=180GB
%chk=B3LYP6-31Gdp.Frag_807.chk
#P OPT Freq B3LYP/6-31G(d,p)

Frag_807

0 1
C                    -1.26097  -0.08375  -1.05823
C                    -0.23296  -0.08009   0.04007
C                    -0.66985  -0.57746   1.39094
C                     1.01243   0.34635  -0.17452
O                     1.93695   0.50177   0.82685
O                     1.49181   0.67232  -1.4177
H                    -0.871     0.35096  -1.97943
H                    -1.59826  -1.10523  -1.27977
H                    -2.15492   0.47932  -0.75798
H                    -1.09048  -1.58932   1.31678
H                     0.15694  -0.59721   2.10205
H                    -1.46275   0.05778   1.80814
H                     2.76942   0.11898   0.52142
H                     1.97372   1.50558  -1.3387

