%nproc=32
%mem=180GB
%chk=B3LYP6-31Gdp.Frag_1153.chk
#P OPT Freq B3LYP/6-31G(d,p)

Frag_1153

0 1
N                    -1.36551   0.46439  -0.28373
N                    -0.66775  -0.55303  -0.19023
N                     0.56584  -0.32613   0.4254
N                     1.43122   0.09992  -0.34941
H                    -2.2604    0.15139  -0.68987
H                     2.2965    0.16356   0.20824

