%nproc=32
%mem=180GB
%chk=B3LYP6-31Gdp.Frag_484.chk
#P OPT Freq B3LYP/6-31G(d,p)

Frag_484

0 1
C                    -1.63932  -0.66041  -0.0676
C                    -0.32366   0.04892   0.0576
N                    -0.36892   1.30836   0.66751
C                     0.83864  -0.50719  -0.31676
N                     2.06772   0.20999  -0.14717
H                    -2.3439   -0.07847  -0.67737
H                    -1.51502  -1.6389   -0.53627
H                    -2.10876  -0.80234   0.9132
H                    -1.18655   1.8505    0.41791
H                     0.48786   1.82389   0.49151
H                     0.85193  -1.51832  -0.71707
H                     2.75084  -0.06058  -0.84538
H                     2.48926   0.02465   0.75978

