%nproc=32
%mem=180GB
#P OPT Freq B3LYP/6-31G**

Frag_182

0 1
N                     1.9969   -0.1838    0.063
N                     0.8836    0.6721    0.0433
C                    -0.3555    0.2819   -0.0492
N                    -1.3842    1.2694   -0.1191
N                    -0.7195   -1.1047   -0.0608
H                     2.9436    0.2218    0.2299
H                     1.9404   -1.1886   -0.2085
H                    -1.1461    2.2863   -0.1058
H                    -2.3874    0.9877   -0.1837
H                    -1.7144   -1.3747   -0.2258
H                    -0.0573   -1.8674    0.1945

