%nproc=32
%mem=180GB
#P OPT Freq B3LYP/6-31G**

Frag_238

0 1
C                     1.1647    0.4922   -0.3256
C                    -0.3251    0.2151   -0.057
C                    -0.5394   -1.2726    0.2524
O                    -1.0719    0.535    -1.2033
O                    -0.7807    0.9965    1.0235
H                     1.509    -0.0776   -1.2152
H                     1.3231    1.575    -0.5165
H                     1.7829    0.1962    0.549
H                    -0.2268   -1.8967   -0.6123
H                     0.0495   -1.5779    1.1439
H                    -1.6143   -1.4656    0.4564
H                    -1.0327    1.5211   -1.3168
H                    -0.2384    0.7593    1.8214

