%nproc=32
%mem=180GB
#P OPT=calcfc Freq B3LYP/6-31G**

Frag_161

0 1
C                    -1.4412    0.029    -0.0614
N                    -0.0619   -0.3446    0.225
C                     1.0451    0.429    -0.2516
O                     0.8502    1.4661   -0.9397
O                     2.3481    0.0405    0.0424
H                    -1.6532    1.0358    0.3561
H                    -2.1346   -0.7048    0.401
H                    -1.6086    0.0388   -1.1591
H                     0.1224   -1.2012    0.794
H                     2.5338   -0.7887    0.5934

