%nproc=128
%mem=128GB
#P OPT Freq B3LYP/6-31G**

Frag_113

0 1
C                    -2.1014   -0.0326   -0.114
C                    -0.7648   -0.6634    0.2904
C                     0.4823   -0.0027   -0.3296
C                     1.7412   -0.8225   -0.0112
C                     0.6608    1.4545    0.1217
H                    -2.1902    1.0016    0.2331
H                    -2.9425   -0.5915    0.3091
H                    -2.2228   -0.0279   -1.2036
H                    -0.7736   -1.7238    0.0046
H                    -0.667    -0.647     1.3856
H                     0.348    -0.0032   -1.4223
H                     2.6304   -0.3865   -0.4793
H                     1.6476   -1.8547   -0.3662
H                     1.921    -0.8585    1.0704
H                     1.556     1.8973   -0.3283
H                     0.7751    1.5132    1.2114
H                    -0.1914    2.0812   -0.1579

