%nproc=128
%mem=128GB
#P OPT Freq B3LYP/6-31G**

Frag_11

0 1
C                     1.2805    1.3645    0.
C                     0.7177    0.1503    0.
C                     1.4921   -1.1413    0.
C                    -0.7772    0.0966    0.
O                    -1.5257    1.053     0.
O                    -1.2432   -1.1799    0.
H                     0.6628    2.2558    0.
H                     2.3588    1.4887    0.
H                     1.2479   -1.7491   -0.8775
H                     2.5673   -0.9467    0.
H                     1.2479   -1.7491    0.8775
H                    -2.2122   -1.1053    0.

