%nproc=32
%mem=180GB
#P OPT=calcfc Freq B3LYP/6-31G**

Frag_366

0 1
C                     2.0853    0.1393   -0.5842
C                     1.0853   -0.009     0.568
C                    -0.4147   -0.0307    0.1483
C                    -0.8143    1.2855   -0.5519
C                    -0.7124   -1.2225   -0.7863
C                    -1.2687   -0.1847    1.4244
H                     3.116     0.1426   -0.171
H                     1.9359    1.0963   -1.124
H                     2.0093   -0.7102   -1.2928
H                     1.3295   -0.9481    1.1123
H                     1.2572    0.8298    1.2785
H                    -0.3127    1.3863   -1.537
H                    -1.9105    1.3136   -0.7342
H                    -0.5429    2.1613    0.0761
H                    -0.3667   -2.1746   -0.3292
H                    -1.8041   -1.3044   -0.9789
H                    -0.2117   -1.0986   -1.7692
H                    -2.3523   -0.2055    1.1767
H                    -1.0174   -1.1295    1.9535
H                    -1.0902    0.6631    2.121

