%nproc=32
%mem=180GB
%chk=B3LYP6-31Gdp.Frag_590.chk
#P OPT Freq B3LYP/6-31G(d,p)

Frag_590

0 1
N                     0.24433   1.46556   0.97297
C                     0.58045   0.40183   0.36007
N                     1.86083  -0.11226   0.47997
C                    -0.34247  -0.45087  -0.51003
N                    -1.74016  -0.09402  -0.2986
H                    -0.74447   1.64279   0.78955
H                     2.20339  -0.67137  -0.28635
H                     2.53361   0.55051   0.83799
H                    -0.09559  -0.25546  -1.56216
H                    -0.10705  -1.51275  -0.32798
H                    -2.32036  -0.48187  -1.03364
H                    -2.07261  -0.48209   0.57831

