%nproc=32
%mem=180GB
%chk=B3LYP6-31Gdp.Frag_696.chk
#P OPT Freq B3LYP/6-31G(d,p)

Frag_696

0 1
N                     1.00176   0.88541  -0.44188
C                     0.64052  -0.19512   0.12066
C                    -0.81221  -0.52069   0.25378
N                    -1.76672   0.20815  -0.15812
H                     2.01836   0.97588  -0.46228
H                     1.33617  -0.93784   0.53288
H                    -1.04895  -1.46685   0.74853
H                    -1.36893   1.05077  -0.59367

