%nproc=32
%mem=180GB
%chk=B3LYP6-31Gdp.Frag_944.chk
#P OPT Freq B3LYP/6-31G(d,p)

Frag_944

0 1
N                    -1.73235  -0.3562    0.33897
C                    -0.51894  -0.19181  -0.39867
O                     0.54238   0.21139   0.48056
N                     1.74193   0.36518  -0.30053
H                    -1.60799  -1.05337   1.06651
H                    -1.98229   0.51324   0.79989
H                    -0.24823  -1.13729  -0.88564
H                    -0.65619   0.57032  -1.17628
H                     2.04499   1.31699  -0.09426
H                     2.41669  -0.23825   0.16945

