%nproc=128
%mem=128GB
#P OPT Freq B3LYP/6-31G**

Frag_56

0 1
C                     1.3258   -0.0024   -0.0028
N                    -0.1739    0.       -0.0112
O                    -0.7291    1.0939    0.0031
O                    -0.7341   -1.0913    0.0031
H                     1.6668    0.8936   -0.5167
H                     1.637     0.0186    1.0433
H                     1.6646   -0.9183   -0.4818

