%nproc=32
%mem=180GB
#P OPT=calcfc Freq B3LYP/6-31G**

Frag_405

0 1
C                    -1.1897    0.8461   -0.3409
C                    -0.0381   -0.1676   -0.3145
C                    -0.5161   -1.4994    0.2754
C                     1.16      0.3745    0.4867
O                     1.6697    1.5407   -0.103
H                    -0.8604    1.7926   -0.8197
H                    -1.5412    1.0678    0.6898
H                    -2.0407    0.4434   -0.9307
H                     0.2891   -0.3538   -1.3615
H                    -0.8533   -1.3649    1.3258
H                    -1.36     -1.9035   -0.3236
H                     0.3074   -2.2449    0.2556
H                     0.844     0.6106    1.5258
H                     1.9618   -0.3968    0.548
H                     2.1673    1.2552   -0.9133

