%nproc=32
%mem=180GB
%chk=B3LYP6-31Gdp.Frag_1016.chk
#P OPT Freq B3LYP/6-31G(d,p)

Frag_1016

0 1
C                     1.58055   0.30324  -1.03282
C                     0.74301  -0.52769  -0.42466
C                    -0.41168  -0.12477   0.47348
N                    -0.64654   1.29224   0.44196
O                    -0.16149  -0.43704   1.81739
O                    -1.55592  -0.92425   0.12397
H                     2.38939  -0.06354  -1.6561
H                     1.49547   1.37718  -0.90943
H                     0.85151  -1.60558  -0.53114
H                    -1.3873    1.50343   1.10332
H                    -0.95769   1.57376  -0.48126
H                    -0.34612  -1.37791   1.91182
H                    -1.5932   -0.98904  -0.83663

