%nproc=32
%mem=180GB
%chk=B3LYP6-31Gdp.Frag_1068.chk
#P OPT Freq B3LYP/6-31G(d,p)

Frag_1068

0 1
N                    -0.83536  -0.63821  -1.10732
N                    -0.17831  -0.45028   0.13609
N                    -1.09434   0.01009   1.13918
C                     0.94751   0.46691  -0.03953
O                     1.93225  -0.05758  -0.87552
H                    -1.47647  -1.41479  -0.97291
H                    -1.42066   0.17931  -1.31177
H                    -0.71474  -0.25124   2.04523
H                    -1.15964   1.03395   1.12384
H                     1.32076   0.67788   0.97537
H                     0.62911   1.4231   -0.49515
H                     2.04979  -0.97922  -0.61762

