%nproc=32
%mem=180GB
%chk=B3LYP6-31Gdp.Frag_797.chk
#P OPT Freq B3LYP/6-31G(d,p)

Frag_797

0 1
C                    -0.18466   1.36769   0.10848
C                     0.04556  -0.11864  -0.18654
N                    -0.80075  -0.58074  -1.21915
N                     1.3997   -0.53134  -0.4685
N                    -0.27262  -0.84133   1.21186
O                    -1.33391  -1.42982   1.30802
O                     0.55816  -0.71622   2.09859
H                     0.07493   1.94499  -0.78226
H                     0.43936   1.68668   0.94507
H                    -1.23225   1.56715   0.35653
H                    -1.7783   -0.44133  -0.9928
H                    -0.64174  -1.56795  -1.38966
H                     2.00137  -0.28817   0.31099
H                     1.72514  -0.05087  -1.30073

