%nproc=32
%mem=180GB
%chk=B3LYP6-31Gdp.Frag_780.chk
#P OPT Freq B3LYP/6-31G(d,p)

Frag_780

0 1
C                     1.72341   0.23706  -0.1469
C                     0.54911   0.50048  -0.71024
C                    -0.79212  -0.01426  -0.23999
N                    -0.64835  -1.03198   0.79222
O                    -1.5846    1.0459    0.26892
H                     2.64363   0.67141  -0.5234
H                     1.80518  -0.41452   0.71646
H                     0.48505   1.17348  -1.56249
H                    -1.36335  -0.35743  -1.11872
H                    -1.57404  -1.36028   1.05012
H                    -0.13351  -1.83068   0.43292
H                    -1.11061   1.38083   1.04099

