%nproc=32
%mem=180GB
%chk=B3LYP6-31Gdp.Frag_912.chk
#P OPT Freq B3LYP/6-31G(d,p)

Frag_912

0 1
C                    -1.10958  -0.69493   0.12516
N                    -0.29563   0.44385  -0.27501
O                    -0.79423   1.57889   0.46534
C                     1.09879   0.31091   0.16968
O                     1.74088  -0.75121  -0.48449
H                    -1.09173  -0.86981   1.21464
H                    -2.14232  -0.52199  -0.18438
H                    -0.73776  -1.58191  -0.39517
H                    -1.02496   2.20041  -0.23385
H                     1.14492   0.20358   1.26914
H                     1.60899   1.23585  -0.11069
H                     1.60254  -1.55355   0.02611

