%nproc=32
%mem=180GB
#P OPT=calcfc Freq B3LYP/6-31G**

Frag_142

0 1
C                    -0.2747    1.154     0.5259
C                     0.1288    0.0068   -0.0182
N                    -0.8104   -1.0341   -0.2986
C                     1.5215   -0.1903   -0.3281
N                     2.6405   -0.3492   -0.5772
H                     0.4307    1.9478    0.7415
H                    -1.3185    1.3156    0.7639
H                    -1.8263   -0.918    -0.0841
H                    -0.4915   -1.9325   -0.7252

