%nproc=32
%mem=180GB
#P OPT=calcfc Freq B3LYP/6-31G**

Frag_318

0 1
C                    -0.7628    1.1267   -0.6842
C                    -0.6891   -0.0275   -0.0113
N                    -1.896    -0.7124    0.3384
N                     0.5741   -0.6024    0.3724
C                     1.8712   -0.0016    0.0751
H                    -1.724     1.5404   -0.9623
H                     0.1201    1.6807   -0.9707
H                    -2.8331   -0.3298    0.0792
H                    -1.8574   -1.6141    0.8633
H                     0.5673   -1.5062    0.8967
H                     2.684    -0.6417    0.4788
H                     1.9417    1.0002    0.5484
H                     2.004     0.0878   -1.0236

