%nproc=128
%mem=128GB
#P OPT Freq B3LYP/6-31G**

Frag_58

0 1
C                     0.1528   -1.8646    0.
C                    -0.6047   -0.7758    0.
N                     0.        0.5599    0.
O                    -0.7923    1.5028    0.
O                     1.2255    0.6578    0.
H                     1.2336   -1.7831    0.
H                    -0.3027   -2.8481    0.
H                    -1.685    -0.73      0.

