%nproc=32
%mem=180GB
%chk=B3LYP6-31Gdp.Frag_464.chk
#P OPT Freq B3LYP/6-31G(d,p)

Frag_464

0 1
C                     1.98942  -0.40768   0.34693
C                     0.70348  -0.53829  -0.44145
N                     0.52844  -1.32566  -1.42596
C                    -0.45222   0.38199  -0.01061
C                    -0.84648   0.10629   1.44531
C                    -1.66441   0.25189  -0.93377
O                     0.03339   1.73638  -0.0191
H                     2.21195   0.64251   0.54931
H                     2.82388  -0.8615   -0.19436
H                     1.90035  -0.91334   1.31539
H                     1.37962  -1.86261  -1.61427
H                    -1.67129   0.76501   1.73047
H                    -0.01186   0.29997   2.12315
H                    -1.16796  -0.9319    1.56851
H                    -1.38603   0.44765  -1.97314
H                    -2.08098  -0.75681  -0.90127
H                    -2.42972   0.96939  -0.62436
H                     0.14054   1.99671  -0.94078

