%nproc=32
%mem=180GB
%chk=B3LYP6-31Gdp.Frag_1036.chk
#P OPT Freq B3LYP/6-31G(d,p)

Frag_1036

0 1
C                    -0.1871    1.58076   0.17006
C                    -0.13853   0.05846   0.20951
C                    -1.3598   -0.60457  -0.43712
O                     0.05334  -0.35941   1.51973
N                     1.07059  -0.39754  -0.64577
N                     1.81568  -1.26134  -0.09821
O                     1.17076   0.07291  -1.78584
H                    -0.28072   1.94109  -0.85399
H                    -1.04784   1.91154   0.75601
H                     0.7172    1.99403   0.62265
H                    -2.25213  -0.29525   0.11172
H                    -1.45683  -0.31225  -1.48448
H                    -1.27386  -1.69279  -0.37212
H                     0.6325   -1.13754   1.48362
H                     2.53674  -1.49791  -0.78727

