%nproc=32
%mem=180GB
%chk=B3LYP6-31Gdp.Frag_565.chk
#P OPT Freq B3LYP/6-31G(d,p)

Frag_565

0 1
C                     1.57599  -0.95831  -0.43137
C                     0.6547    0.25925  -0.32015
C                     0.83455   1.00426   1.01284
N                    -0.73493  -0.13146  -0.64639
C                    -1.3988   -0.89827   0.39826
N                    -1.50539   1.11032  -0.82856
H                     2.62308  -0.64309  -0.38948
H                     1.40545  -1.48518  -1.374
H                     1.41878  -1.66504   0.39038
H                     0.93527   0.95125  -1.12599
H                     0.10588   1.814     1.09445
H                     1.84004   1.43271   1.0751
H                     0.71024   0.33427   1.87036
H                    -1.59276  -0.32138   1.31733
H                    -2.36113  -1.26157   0.01766
H                    -0.79606  -1.77329   0.6494
H                    -2.47      0.79981  -0.94719
H                    -1.2449    1.43151  -1.76255

