%nproc=32
%mem=180GB
%chk=B3LYP6-31Gdp.Frag_772.chk
#P OPT Freq B3LYP/6-31G(d,p)

Frag_772

0 1
C                     1.86264   0.10579  -0.28433
C                     0.67188   0.03816  -0.10055
C                    -0.67188  -0.03816   0.10685
C                    -1.86264  -0.10579   0.29063
H                     2.91038   0.16529  -0.44603
H                    -2.91038  -0.16529   0.45233

