%nproc=32
%mem=180GB
#P OPT=calcfc Freq B3LYP/6-31G**

Frag_314

0 1
C                    -1.0504    0.2846    0.3677
N                    -0.5467   -0.91      0.4264
N                     0.8095   -1.1981    0.6821
N                     1.7531   -0.3578    0.5139
H                    -2.1043    0.406     0.1585
H                    -0.4619    1.1692    0.5634
H                     1.6007    0.606     0.1466

