%nproc=32
%mem=180GB
#P OPT Freq B3LYP/6-31G**

Frag_220

0 1
O                    -1.9525   -1.7585   -0.0718
C                    -1.0209   -0.911    -0.0373
C                    -1.3194    0.4514    0.0022
C                    -0.2654    1.3623    0.0398
N                     1.0189    0.9168    0.0374
C                     1.2936   -0.4163   -0.0014
O                     2.4899   -0.8127   -0.003
N                     0.2768   -1.3218   -0.0384
H                    -2.3453    0.7986    0.0038
H                    -0.4711    2.4248    0.0709
H                     1.8       1.6106    0.0659
H                     0.4954   -2.3441   -0.0681

