%nproc=32
%mem=180GB
#P OPT=calcfc Freq B3LYP/6-31G**

Frag_146

0 1
C                     2.2068    0.3684    0.0668
C                     0.8899    0.1817    0.0329
C                     0.2356   -1.1253   -0.2023
C                    -1.2644   -0.7963   -0.1435
C                    -1.3942    0.7146    0.1282
N                    -0.0423    1.2256    0.2204
H                     2.6175    1.354     0.2442
H                     2.8838   -0.4632   -0.0826
H                     0.5154   -1.8473    0.5953
H                     0.5158   -1.5242   -1.2014
H                    -1.7528   -1.0562   -1.1081
H                    -1.7532   -1.376     0.6698
H                    -1.9297    0.8985    1.0842
H                    -1.9292    1.2202   -0.7041
H                     0.201     2.2255    0.4003

