%nproc=32
%mem=180GB
#P OPT=calcfc Freq B3LYP/6-31G**

Frag_169

0 1
C                    -1.899    -0.222    -0.9066
C                    -0.7515   -0.7841   -0.5226
N                     0.3085   -0.0525    0.1265
C                     0.1987    1.3826    0.4148
C                     1.5174   -0.7913    0.4965
H                    -2.6562   -0.8261   -1.3895
H                    -2.1075    0.8275   -0.7535
H                    -0.6186   -1.8431   -0.712
H                    -0.6662    1.5658    1.0866
H                     1.1095    1.7718    0.9161
H                     0.062     1.9467   -0.5318
H                     2.2676   -0.1369    0.988
H                     1.9806   -1.2294   -0.4129
H                     1.2547   -1.6091    1.2005

