%nproc=32
%mem=180GB
#P OPT=calcfc Freq B3LYP/6-31G**

Frag_277

0 1
C                    -1.6995   -0.0787    0.0638
N                    -0.3447   -0.5026    0.3877
C                     0.6858    0.2477    0.1553
N                     1.9925   -0.2115    0.4902
H                    -2.4112   -0.8799    0.3506
H                    -1.9534    0.8462    0.6244
H                    -1.7891    0.1089   -1.0275
H                     0.5651    1.2271   -0.2938
H                     2.133    -1.1513    0.9236
H                     2.8215    0.3941    0.3023

