%nproc=32
%mem=180GB
%chk=B3LYP6-31Gdp.Frag_455.chk
#P OPT Freq B3LYP/6-31G(d,p)

Frag_455

0 1
C                     1.70547   0.62489  -0.1405
C                     0.6328   -0.47269  -0.23434
N                     0.92904  -1.64869   0.5929
C                    -0.80366   0.00298   0.1556
C                    -1.29048   1.18358  -0.68833
N                    -1.77344  -1.0739    0.05517
O                    -0.79487   0.35913   1.54691
H                     1.78402   1.01373   0.88207
H                     2.6866    0.21645  -0.40539
H                     1.50935   1.46452  -0.81506
H                     0.5787   -0.81284  -1.27766
H                     0.90952  -1.36292   1.56872
H                     1.86234  -1.99507   0.39644
H                    -2.33125   1.39428  -0.43147
H                    -1.22871   0.96154  -1.75942
H                    -0.6986    2.08418  -0.50205
H                    -2.05524  -1.18683  -0.91298
H                    -1.31287  -1.9377    0.33373
H                    -0.30872   1.18518   1.63576

