%nproc=32
%mem=180GB
%chk=B3LYP6-31Gdp.Frag_805.chk
#P OPT Freq B3LYP/6-31G(d,p)

Frag_805

0 1
N                     2.21763   0.26384  -0.42982
C                     1.12296  -0.03633  -0.21445
C                    -0.28039  -0.37953   0.08219
O                    -1.18518   0.6315   -0.29588
H                    -0.55159  -1.27326  -0.48778
H                    -0.35101  -0.638     1.14901
H                    -0.97232   1.43168   0.19662

