%nproc=128
%mem=128GB
#P OPT=calcfc Freq B3LYP/6-31G**

Frag_110

0 1
C                    -1.5212   -0.4425    0.
C                    -0.5535    0.7171    0.
C                     0.7765    0.5832    0.
O                     1.4754   -0.5901    0.
H                    -2.555    -0.0898    0.
H                    -1.4061   -1.0839    0.885
H                    -1.4061   -1.0839   -0.885
H                    -0.9501    1.7267    0.
H                     1.4533    1.432     0.
H                     0.8496   -1.3277    0.

