%nproc=32
%mem=180GB
%chk=B3LYP6-31Gdp.Frag_616.chk
#P OPT Freq B3LYP/6-31G(d,p)

Frag_616

0 1
C                     1.87431  -0.10798  -0.00193
C                     0.66314   0.78499   0.06295
O                     0.73104   1.99663   0.05776
C                    -0.736     0.12031   0.21273
C                    -1.04689  -0.90452  -0.87035
O                    -1.69311   1.1285    0.22869
O                    -0.71193  -0.57499   1.45902
H                     1.79989  -0.89422   0.75313
H                     2.78035   0.48236   0.13928
H                     1.91693  -0.59754  -0.9817
H                    -2.07007  -1.2579   -0.72258
H                    -0.36976  -1.75956  -0.81083
H                    -0.97189  -0.4485   -1.86132
H                    -1.18631   1.9608    0.21267
H                    -0.9799    0.07182   2.12259

