%nproc=32
%mem=180GB
#P OPT Freq B3LYP/6-31G**

Frag_285

0 1
C                    -1.394    -0.4665   -0.503
C                    -0.0377   -0.0322   -0.0478
N                     0.1646    1.3185    0.383
N                     0.9231   -0.9028    0.0082
O                     2.1841   -0.5704    0.4477
H                    -1.8636    0.3344   -1.1117
H                    -1.3239   -1.3856   -1.1234
H                    -2.0316   -0.6729    0.3816
H                    -0.6261    2.0002    0.3643
H                     1.0941    1.6513    0.7222
H                     2.9109   -1.2739    0.4789

