%nproc=32
%mem=180GB
#P OPT=calcfc Freq B3LYP/6-31G**

Frag_304

0 1
N                     1.7985    0.7977    0.053
C                     0.8417   -0.1717    0.4923
C                    -0.4182   -0.2376    0.0278
N                    -1.2744   -1.2907    0.4825
N                    -0.9434    0.7229   -0.8982
H                     1.6488    1.4176   -0.771
H                     2.7358    0.825     0.5116
H                     1.1664   -0.8985    1.2274
H                    -0.9381   -2.0131    1.1584
H                    -2.259    -1.3538    0.1411
H                    -1.8979    0.5848   -1.298
H                    -0.4605    1.6174   -1.127

