%nproc=32
%mem=180GB
%chk=B3LYP6-31Gdp.Frag_820.chk
#P OPT Freq B3LYP/6-31G(d,p)

Frag_820

0 1
N                    -1.65384  -0.03154   0.12004
C                    -0.43217  -0.5571    0.35322
O                    -0.18233  -1.42124   1.1786
C                     0.69774   0.01123  -0.54351
O                     0.58513   1.4115   -0.68331
O                     1.91365  -0.36091   0.00597
H                    -1.71981   0.81098  -0.42768
H                    -2.42226  -0.29565   0.7151
H                     0.578    -0.38054  -1.56508
H                     0.95256   1.79352   0.12409
H                     1.68332  -0.98026   0.72255

