%nproc=32
%mem=180GB
%chk=B3LYP6-31Gdp.Frag_800.chk
#P OPT Freq B3LYP/6-31G(d,p)

Frag_800

0 1
C                    -0.90092   0.65535   1.37912
C                    -0.71351   0.16633   0.14941
N                    -1.64726   0.27282  -0.89277
C                     0.59959  -0.4499   -0.32318
N                     1.43015  -0.83852   0.80339
N                     1.40919   0.45066  -1.15246
H                    -1.83914   1.11528   1.6732
H                    -0.09463   0.64092   2.09883
H                    -1.7145   -0.55579  -1.47103
H                    -2.56561   0.57118  -0.59228
H                     0.33516  -1.30059  -0.98402
H                     0.95447  -1.52738   1.37568
H                     2.2853   -1.25221   0.447
H                     0.8373    0.78263  -1.92482
H                     1.6246    1.26901  -0.58595

