%nproc=32
%mem=180GB
%chk=B3LYP6-31Gdp.Frag_549.chk
#P OPT Freq B3LYP/6-31G(d,p)

Frag_549

0 1
C                     1.86079  -0.10348  -0.64805
C                     0.64382   0.51529   0.04155
N                     0.73969   0.25848   1.49228
N                    -0.60966   0.02916  -0.52646
C                    -1.76174   0.80796  -0.10392
C                    -0.84846  -1.40092  -0.3728
H                     1.74372  -0.05133  -1.73273
H                     2.76895   0.44194  -0.37102
H                     1.99721  -1.14719  -0.35217
H                     0.64983   1.59508  -0.18352
H                     0.13005   0.88953   2.00336
H                     1.6824    0.45156   1.8166
H                    -2.63289   0.53333  -0.70857
H                    -2.04297   0.66133   0.95639
H                    -1.56725   1.8744   -0.26128
H                    -0.95879  -1.71565   0.67692
H                    -1.76439  -1.66469  -0.91183
H                    -0.03032  -1.9748   -0.81474

