%nproc=32
%mem=180GB
%chk=B3LYP6-31Gdp.Frag_500.chk
#P OPT Freq B3LYP/6-31G(d,p)

Frag_500

0 1
C                    -0.73623   1.3326    0.17268
C                    -0.00494   0.02333  -0.14013
C                    -0.92115  -1.19174  -0.00387
O                     0.50683   0.14648  -1.48291
C                     1.18432  -0.10909   0.84433
O                     1.04347  -0.37071   2.00854
O                     2.38295   0.12367   0.28868
H                    -0.07733   2.18778  -0.00235
H                    -1.05169   1.34369   1.21805
H                    -1.61228   1.43358  -0.47353
H                    -1.23203  -1.30542   1.03585
H                    -1.80589  -1.07436  -0.6362
H                    -0.39929  -2.11218  -0.29272
H                     0.51856  -0.73003  -1.88265
H                     2.2049    0.30241  -0.65377

