%nproc=32
%mem=180GB
%chk=B3LYP6-31Gdp.Frag_615.chk
#P OPT Freq B3LYP/6-31G(d,p)

Frag_615

0 1
C                     2.44917  -0.36117   0.47645
C                     1.33834  -0.19359   0.04773
C                    -0.02146   0.01108  -0.45066
C                    -0.58081   1.37052   0.01363
C                    -0.94384  -1.15077  -0.03128
H                     3.43372  -0.50956   0.84502
H                     0.02436   0.02404  -1.54856
H                     0.06313   2.19239  -0.30971
H                    -1.58128   1.52927  -0.40115
H                    -0.65174   1.40466   1.1051
H                    -0.55622  -2.10907  -0.38634
H                    -1.94637  -1.00632  -0.44631
H                    -1.027    -1.20158   1.05868

