%nproc=32
%mem=180GB
%chk=B3LYP6-31Gdp.Frag_1098.chk
#P OPT Freq B3LYP/6-31G(d,p)

Frag_1098

0 1
C                    -0.87911  -0.74092   0.91719
N                    -0.55916  -0.129    -0.37161
C                    -1.33892   1.07904  -0.60622
N                     0.82586   0.16847  -0.5669
N                     1.57372  -0.99113  -0.92015
N                     1.39938   0.80713   0.57338
H                    -0.27351  -1.6409    1.07356
H                    -0.73019  -0.06199   1.77037
H                    -1.92541  -1.05846   0.89998
H                    -2.4028    0.82136  -0.59243
H                    -1.15563   1.85873   0.15026
H                    -1.08278   1.47856  -1.58965
H                     1.26499  -1.24313  -1.85582
H                     1.30493  -1.77811  -0.31819
H                     1.77936   0.10464   1.2134
H                     2.19926   1.32551   0.22283

