%nproc=32
%mem=180GB
%chk=B3LYP6-31Gdp.Frag_685.chk
#P OPT Freq B3LYP/6-31G(d,p)

Frag_685

0 1
N                    -1.77256  -0.08704   0.26072
C                    -0.54859  -0.39459   0.32857
C                     0.53386   0.42535  -0.34758
O                     0.28762   1.41146  -0.98446
O                     1.79683  -0.01908  -0.19198
H                    -1.8584    0.76819  -0.30609
H                    -0.24996  -1.28397   0.89416
H                     1.8112   -0.82042   0.34666

