%nproc=128
%mem=128GB
#P OPT=calcfc Freq B3LYP/6-31G**

Frag_94

0 1
C                     2.0494    0.0343    0.
C                     0.7352   -0.6904    0.
C                    -0.4733   -0.115     0.
C                    -0.7316    1.3772    0.
O                    -1.5856   -0.9327    0.
H                     1.9291    1.1214    0.
H                     2.653    -0.2271   -0.8794
H                     2.6531   -0.2272    0.8794
H                     0.7621   -1.7776    0.
H                    -0.3031    1.8623   -0.8828
H                    -0.3032    1.8623    0.8829
H                    -1.8048    1.5976   -0.0001
H                    -2.3795   -0.3865    0.

