%nproc=32
%mem=180GB
%chk=B3LYP6-31Gdp.Frag_742.chk
#P OPT Freq B3LYP/6-31G(d,p)

Frag_742

0 1
N                    -1.14212  -0.25567  -1.39468
C                    -0.48329   0.25179  -0.1879
O                    -0.67187   1.62385  -0.05989
C                     1.00691  -0.06044  -0.34768
O                     1.84328   0.77222  -0.58186
O                     1.26192  -1.37696  -0.23398
H                    -1.05988  -1.26809  -1.43514
H                    -2.13117  -0.03223  -1.33104
H                    -0.84832  -0.20435   0.74604
H                     0.01405   2.04775  -0.59524
H                     2.2104   -1.49776  -0.39594

