%nproc=32
%mem=180GB
%chk=B3LYP6-31Gdp.Frag_1097.chk
#P OPT Freq B3LYP/6-31G(d,p)

Frag_1097

0 1
N                    -1.37949  -0.11412   0.16477
C                    -0.05196   0.15849   0.16276
O                     0.51017   1.05332   0.75903
O                     0.61604  -0.75114  -0.60004
O                     2.02381  -0.48178  -0.55504
H                    -1.98812   0.59446   0.53627
H                    -1.75345  -0.76899  -0.50121
H                     2.023     0.30976   0.03347

