%nproc=32
%mem=180GB
%chk=B3LYP6-31Gdp.Frag_1030.chk
#P OPT Freq B3LYP/6-31G(d,p)

Frag_1030

0 1
N                    -1.59267  -0.13483   0.45445
C                    -0.37259  -0.71806   0.60893
O                    -0.15767  -1.7887    1.11843
N                     0.69542   0.00495  -0.05795
O                     0.38374   1.38793  -0.13453
O                     1.87384  -0.12639   0.69043
H                    -2.35145  -0.57691   0.94511
H                    -1.63932   0.8503    0.25874
H                     0.66987   1.62824  -1.02414
H                     2.49104  -0.52642   0.06653

