%nproc=32
%mem=180GB
%chk=B3LYP6-31Gdp.Frag_1072.chk
#P OPT Freq B3LYP/6-31G(d,p)

Frag_1072

0 1
C                     1.50453  -1.09488  -0.2523
C                     0.66676   0.17505  -0.06299
N                     0.72837   0.97675  -1.28062
N                     1.23381   0.90474   1.08493
C                    -0.84936  -0.17887   0.16202
N                    -1.34833  -0.89805  -0.98776
N                    -1.57156   1.06639   0.41149
O                    -0.99443  -1.00767   1.31468
H                     2.53936  -0.81472  -0.46669
H                     1.51004  -1.69321   0.66354
H                     1.11569  -1.702    -1.07052
H                     0.13054   1.79064  -1.15904
H                     1.67964   1.30699  -1.41423
H                     0.77649   1.80811   1.1729
H                     1.04159   0.38831   1.94086
H                    -2.36315  -0.93224  -0.98235
H                    -1.03415  -0.42824  -1.83159
H                    -1.38702   1.36279   1.36632
H                    -2.56946   0.87677   0.37288
H                    -0.80917  -1.90647   1.01847

