%nproc=32
%mem=180GB
%chk=B3LYP6-31Gdp.Frag_577.chk
#P OPT Freq B3LYP/6-31G(d,p)

Frag_577

0 1
C                     1.8696   -0.14109   0.39464
C                     0.71005   0.23845  -0.15011
O                     0.53558   1.38221  -0.87358
C                    -0.56903  -0.5261    0.00188
C                    -1.83832   0.28589   0.02336
N                    -0.63148  -1.79471   0.11439
H                     1.93055  -1.03364   1.00153
H                     2.77865   0.43803   0.2702
H                     1.36754   1.8683   -0.9004
H                    -2.6873   -0.37798   0.18742
H                    -1.80328   1.04541   0.81209
H                    -1.96477   0.82226  -0.92201
H                     0.30222  -2.20694   0.0406

