%nproc=32
%mem=180GB
%chk=B3LYP6-31Gdp.Frag_785.chk
#P OPT Freq B3LYP/6-31G(d,p)

Frag_785

0 1
C                    -1.19933  -0.51255  -0.3955
C                    -0.30526   0.5054    0.32011
O                    -0.01361   1.59667  -0.47364
O                    -0.88583   1.01463   1.46623
O                     0.91171  -0.14538   0.76496
N                     1.77022  -0.36126  -0.36188
H                    -1.43423  -1.35489   0.2638
H                    -2.12574  -0.02618  -0.70829
H                    -0.69162  -0.90341  -1.2814
H                     0.65218   1.2727   -1.09842
H                    -1.2328    0.27619   1.97684
H                     1.88709  -1.37248  -0.41809
H                     2.66713   0.01056  -0.0547

