%nproc=32
%mem=180GB
%chk=B3LYP6-31Gdp.Frag_1004.chk
#P OPT Freq B3LYP/6-31G(d,p)

Frag_1004

0 1
C                     1.39982  -0.3954    0.1278
C                     0.20173   0.55413   0.03703
O                     0.20473   1.29678  -1.17264
C                    -1.10927  -0.21568   0.08749
N                    -2.00289  -0.17397   0.98609
O                    -1.24212  -1.04611  -0.96549
H                     1.38788  -1.09393  -0.71176
H                     2.33509   0.17578   0.10379
H                     1.37998  -0.96416   1.06249
H                     0.20695   1.23151   0.90512
H                     1.10059   1.61694  -1.31866
H                    -1.76913   0.50651   1.70598
H                    -2.09336  -1.49249  -0.84733

