%nproc=32
%mem=180GB
#P OPT=calcfc Freq B3LYP/6-31G**

Frag_334

0 1
C                     1.1148    0.6838   -0.2292
N                     0.3801   -0.2561    0.2797
C                    -1.0479   -0.3331   -0.0112
O                     0.9553   -1.1944    1.106
H                     0.6861    1.4347   -0.8826
H                     2.1735    0.7322   -0.0071
H                    -1.4986   -1.2015    0.5144
H                    -1.2069   -0.4584   -1.1037
H                    -1.5563    0.5928    0.3336

