%nproc=32
%mem=180GB
%chk=B3LYP6-31Gdp.Frag_975.chk
#P OPT Freq B3LYP/6-31G(d,p)

Frag_975

0 1
N                    -0.66027  -0.08854   0.19394
C                     0.63451   0.07928  -0.18653
O                     1.40884  -0.81728  -0.42884
H                    -1.02855  -1.02159   0.28906
H                    -1.26038   0.69508   0.38311
H                     0.90585   1.15305  -0.25085

