%nproc=32
%mem=180GB
#P OPT=calcfc Freq B3LYP/6-31G**

Frag_133

0 1
N                    -0.7684    1.283     0.4695
C                    -0.0941    0.2604    0.0457
N                    -0.4465   -1.0572    0.4801
N                     1.0024    0.4544   -0.8571
O                     1.3112    1.6028   -1.2371
O                     1.7268   -0.6214   -1.3151
H                    -1.5726    1.1771    1.1274
H                     0.0852   -1.892     0.1491
H                    -1.2439   -1.2071    1.1376

