%nproc=32
%mem=180GB
%chk=B3LYP6-31Gdp.Frag_703.chk
#P OPT Freq B3LYP/6-31G(d,p)

Frag_703

0 1
C                    -0.82313   0.53725  -1.33598
C                    -0.69664   0.20803  -0.03886
N                    -1.77725  -0.05139   0.8084
N                     0.54347   0.08529   0.6182
C                     1.74841   0.00885  -0.1842
O                     0.54356  -0.93003   1.61154
H                    -1.80063   0.7571   -1.74611
H                     0.02105   0.60581  -2.00295
H                    -2.64477   0.34215   0.47356
H                    -1.59554   0.18614   1.77404
H                     1.86186   0.93775  -0.74705
H                     1.74212  -0.83659  -0.89203
H                     2.593    -0.09656   0.4976
H                     0.28449  -1.75381   1.16384

