%nproc=32
%mem=180GB
#P OPT=calcfc Freq B3LYP/6-31G**

Frag_364

0 1
N                     1.2244   -0.1152   -0.2442
C                     0.0162    0.3942    0.318
N                    -1.2374   -0.2017   -0.0114
O                     0.0565    1.374     1.1083
H                     2.1427    0.3199   -0.0041
H                     1.2031   -0.9269   -0.9004
H                    -2.1226    0.1699    0.3992
H                    -1.2829   -1.0143   -0.6653

