%nproc=32
%mem=180GB
#P OPT=calcfc Freq B3LYP/6-31G**

Frag_313

0 1
N                    -1.1353   -0.6087   -0.4131
C                    -0.6239    0.7263   -0.3466
N                     0.5429    1.0145    0.1517
N                     1.4711    0.0709    0.6211
H                    -2.0541   -0.7742   -0.8798
H                    -0.6831   -1.4188    0.0607
H                    -1.2431    1.5352   -0.7109
H                     2.3503    0.4068    1.0715
H                     1.3753   -0.952     0.4454

