%nproc=32
%mem=180GB
%chk=B3LYP6-31Gdp.Frag_1096.chk
#P OPT Freq B3LYP/6-31G(d,p)

Frag_1096

0 1
C                     1.56392  -0.79749  -0.05732
C                     0.47446   0.13719  -0.56115
O                     0.76852   1.51684  -0.29921
C                    -0.90546  -0.09798   0.09658
N                    -0.78768  -0.013     1.52624
O                    -1.39553  -1.37379  -0.19987
O                    -1.83393   0.81997  -0.47877
H                     1.26082  -1.83529  -0.2159
H                     1.73366  -0.64826   1.01077
H                     2.50128  -0.62684  -0.59968
H                     0.32336  -0.01036  -1.64135
H                     1.62814   1.7259   -0.67646
H                    -1.71814  -0.05238   1.93042
H                    -0.37064   0.87992   1.76941
H                    -1.88298  -1.28014  -1.02587
H                    -1.3598    1.6557   -0.57795

