%nproc=32
%mem=180GB
%chk=B3LYP6-31Gdp.Frag_736.chk
#P OPT Freq B3LYP/6-31G(d,p)

Frag_736

0 1
N                    -0.36301   0.79156  -1.55657
C                    -0.45383   0.00842  -0.56936
N                     0.48192   0.0506    0.521
N                     0.21021  -0.80445   1.38676
H                     0.44796   1.40589  -1.42218
H                    -1.24535  -0.74095  -0.49037
H                     0.92211  -0.71106   2.13081

