%nproc=32
%mem=180GB
#P OPT Freq B3LYP/6-31G**

Frag_219

0 1
N                    -1.2326    0.3141    0.6267
C                    -0.3874   -0.0115   -0.5163
C                     0.7693   -0.8517   -0.0715
O                     0.6837   -2.1074   -0.1065
O                     1.9257   -0.2577    0.4252
H                    -2.0652    0.8352    0.2678
H                    -0.7092    0.9794    1.2417
H                    -0.014     0.9211   -0.9944
H                    -0.9834   -0.5712   -1.2701
H                     2.0131    0.7498    0.4844

