%nproc=32
%mem=180GB
%chk=B3LYP6-31Gdp.Frag_686.chk
#P OPT Freq B3LYP/6-31G(d,p)

Frag_686

0 1
C                    -1.32794  -0.39425   0.73191
C                    -0.72205   0.34918  -0.18588
C                     0.74368   0.30619  -0.49822
O                     1.39445  -0.64118   0.32447
H                    -2.39482  -0.31621   0.91033
H                    -0.77331  -1.10471   1.33335
H                    -1.28743   1.0605   -0.78513
H                     1.1668    1.31744  -0.36026
H                     0.87246   0.06546  -1.5689
H                     2.32826  -0.6425    0.09832

