%nproc=32
%mem=180GB
#P OPT=calcfc Freq B3LYP/6-31G**

Frag_415

0 1
C                     1.5028   -0.9341    1.2092
C                     0.8033   -0.1643    0.3604
C                     1.5246    0.9345   -0.38
C                    -0.6857   -0.4062    0.1589
C                    -0.9901   -0.7921   -1.2932
C                    -1.506     0.8151    0.5896
H                     2.5658   -0.7701    1.3604
H                     1.0281   -1.7372    1.7646
H                     1.9666    1.6488    0.3465
H                     0.8422    1.4977   -1.0477
H                     2.3358    0.4987   -1.0009
H                    -1.0177   -1.2579    0.795
H                    -2.0628   -1.062    -1.397
H                    -0.7703    0.0452   -1.9883
H                    -0.3812   -1.6734   -1.5882
H                    -1.2985    1.6909   -0.0606
H                    -1.266     1.0831    1.6408
H                    -2.5909    0.5834    0.5304

