%nproc=32
%mem=180GB
%chk=B3LYP6-31Gdp.Frag_908.chk
#P OPT Freq B3LYP/6-31G(d,p)

Frag_908

0 1
C                     2.24843  -0.12127   0.61289
C                     1.19243   0.05689   0.06644
C                    -0.11947   0.28822  -0.54907
C                    -1.16388  -0.7137   -0.03712
O                    -0.55041   1.63526  -0.37434
H                     3.19108  -0.27586   1.07723
H                    -0.02293   0.17165  -1.63523
H                    -0.86326  -1.74069  -0.26384
H                    -1.27972  -0.6249    1.04784
H                    -2.12622  -0.50805  -0.51278
H                    -0.50613   1.83254   0.56799

