%nproc=32
%mem=180GB
#P OPT=calcfc Freq B3LYP/6-31G**

Frag_354

0 1
C                    -1.5304    0.3094   -1.1448
C                    -0.7055   -0.048    -0.1545
N                    -1.1631   -0.9812    0.8325
C                     0.6843    0.4782   -0.0843
C                     1.7716   -0.3523    0.5257
N                     0.9688    1.6869   -0.4628
H                    -1.2132    0.9729   -1.9385
H                    -2.538    -0.084    -1.1919
H                    -0.5625   -1.2451    1.6444
H                    -2.1211   -1.395     0.7811
H                     1.7655   -0.2226    1.6281
H                     2.7636   -0.0426    0.1326
H                     1.6213   -1.4248    0.2798
H                     0.2587    2.3484   -0.8474

