%nproc=32
%mem=180GB
#P OPT=calcfc Freq B3LYP/6-31G**

Frag_395

0 1
C                     2.0823    0.2636    0.2764
O                     0.8167    0.2496    0.907
C                    -0.2254   -0.1986    0.0461
C                    -1.3709   -0.6859    0.9456
C                    -0.7297    0.9728   -0.8229
O                     0.2016   -1.2733   -0.7667
H                     2.4717   -0.7706    0.1591
H                     2.7928    0.8124    0.9277
H                     2.0637    0.784    -0.7041
H                    -1.0222   -1.5318    1.5757
H                    -1.7142    0.1325    1.6147
H                    -2.2333   -1.0337    0.3369
H                     0.0298    1.2668   -1.5756
H                    -1.6519    0.6847   -1.3722
H                    -0.9582    1.854    -0.1858
H                    -0.5525   -1.5266   -1.3618

