%nproc=32
%mem=180GB
#P OPT=calcfc Freq B3LYP/6-31G**

Frag_346

0 1
C                     1.8819    0.4591    0.2584
C                     0.973    -0.7463   -0.0457
C                    -0.4643   -0.2545   -0.2988
C                    -0.9841    0.4777    0.9523
N                    -0.4724    0.6666   -1.4444
N                    -1.3319   -1.4051   -0.589
H                     1.5208    0.9678    1.1277
H                     1.876     1.1296   -0.5755
H                     2.8805    0.1174    0.4342
H                     0.9789   -1.4168    0.7881
H                     1.3341   -1.255    -0.915
H                    -0.3525    1.3152    1.1636
H                    -1.9827    0.8194    0.7765
H                    -0.9781   -0.1928    1.7862
H                     0.1178    1.4494   -1.2469
H                    -1.4057    0.986    -1.6087
H                    -1.3264   -2.0317    0.1903
H                    -2.2652   -1.0858   -0.7534

