%nproc=32
%mem=180GB
%chk=B3LYP6-31Gdp.Frag_689.chk
#P OPT Freq B3LYP/6-31G(d,p)

Frag_689

0 1
C                     1.68866  -0.03917  -0.39165
C                     0.49474   0.33187   0.07113
O                     0.23129   1.54727   0.64163
C                    -0.73265  -0.53033   0.00586
N                    -0.743    -1.80986  -0.00496
N                    -1.90277   0.1829   -0.09703
H                     1.82018  -0.99689  -0.87459
H                     2.55713   0.6066   -0.3178
H                     1.02017   2.09847   0.59256
H                     0.20366  -2.17369   0.07147
H                    -2.74276  -0.34933   0.06757
H                    -1.89467   1.13216   0.23579

