%nproc=32
%mem=180GB
%chk=B3LYP6-31Gdp.Frag_655.chk
#P OPT Freq B3LYP/6-31G(d,p)

Frag_655

0 1
C                    -1.50607  -0.50737   0.21781
C                    -0.19091  -0.0471   -0.39265
O                    -0.22856   1.2978   -0.81746
O                     0.79684  -0.2489    0.58963
N                     2.09543  -0.12959  -0.03094
H                    -2.32194  -0.32792  -0.48587
H                    -1.46834  -1.57201   0.4607
H                    -1.70711   0.04577   1.14223
H                     0.0724   -0.61402  -1.29235
H                    -0.55483   1.82303  -0.07649
H                     2.31876   0.86595   0.02953
H                     2.69424  -0.58552   0.65567

