%nproc=128
%mem=128GB
#P OPT Freq B3LYP/6-31G**

Frag_89

0 1
C                    -1.9728   -0.0284   -0.0706
C                    -0.807    -0.6693    0.0781
C                     0.5259   -0.0518    0.0152
C                     1.6329   -0.8206   -0.0385
N                     0.5565    1.349    -0.0496
H                    -2.024     1.0325   -0.2953
H                    -2.9175   -0.5573    0.0002
H                    -0.8052   -1.7409    0.2632
H                     2.6293   -0.3918   -0.0805
H                     1.5545   -1.8997   -0.0877
H                    -0.0919    1.7968    0.5874
H                     1.4854    1.7375    0.0548

