%nproc=128
%mem=128GB
#P OPT Freq B3LYP/6-31G**

Frag_62

0 1
C                     2.0639    0.0342    0.1309
C                     0.7601   -0.6399   -0.298
C                    -0.4916    0.0046    0.3135
N                    -0.6092    1.3892   -0.1288
N                    -1.6709   -0.7859   -0.0859
H                     2.9265   -0.4291   -0.3585
H                     2.2141   -0.0459    1.2139
H                     2.0453    1.0965   -0.1239
H                     0.7787   -1.7021   -0.0184
H                     0.6537   -0.6124   -1.3902
H                    -0.3571    0.0453    1.409
H                    -0.9098    1.3821   -1.1032
H                    -1.3439    1.8627    0.3925
H                    -1.5497   -1.761     0.1851
H                    -2.4918   -0.453     0.4173

