%nproc=32
%mem=180GB
%chk=B3LYP6-31Gdp.Frag_803.chk
#P OPT Freq B3LYP/6-31G(d,p)

Frag_803

0 1
C                    -1.61552   0.20791   0.59381
C                    -0.32266  -0.33161  -0.02163
C                    -0.46141  -0.53178  -1.53441
O                    -0.01799  -1.63026   0.51052
C                     0.84365   0.64785   0.23708
N                     0.66483   1.8893   -0.01019
N                     1.97562   0.04474   0.73031
H                    -1.82397   1.20799   0.212
H                    -1.52141   0.28632   1.68373
H                    -2.44937  -0.46092   0.3616
H                     0.45506  -0.96519  -1.94597
H                    -1.28896  -1.2148   -1.74545
H                    -0.6428    0.42807  -2.02083
H                    -0.16904  -1.59873   1.46168
H                     1.51169   2.43358   0.16624
H                     2.01577  -0.95953   0.64907
H                     2.84659   0.54727   0.67246

