%nproc=32
%mem=180GB
%chk=B3LYP6-31Gdp.Frag_764.chk
#P OPT Freq B3LYP/6-31G(d,p)

Frag_764

0 1
C                    -1.04511  -0.07323   0.1343
C                     0.1474    0.36985  -0.26784
C                     1.375    -0.26935   0.07648
N                     2.38471  -0.77023   0.34247
H                    -1.14654  -0.95661   0.75398
H                    -1.95416   0.4434   -0.15065
H                     0.23859   1.25617  -0.88873

