%nproc=32
%mem=180GB
%chk=B3LYP6-31Gdp.Frag_656.chk
#P OPT Freq B3LYP/6-31G(d,p)

Frag_656

0 1
C                    -1.38292  -1.22013  -0.17805
C                    -0.23925  -0.27398   0.19355
C                    -0.72182   1.19758   0.12054
N                     0.86865  -0.59517  -0.6727
N                     1.9997    0.11163  -0.14982
H                    -1.67266  -1.05981  -1.22208
H                    -1.0602   -2.25973  -0.07685
H                    -2.26194  -1.0571    0.4539
H                     0.01624  -0.46381   1.27158
H                    -1.06702   1.42857  -0.89289
H                    -1.54001   1.39404   0.82353
H                     0.07342   1.91546   0.37027
H                     2.21881  -0.09624   0.85272
H                     1.9606    1.1523   -0.19336
H                     2.8083   -0.1736   -0.70035

