%nproc=32
%mem=180GB
%chk=B3LYP6-31Gdp.Frag_667.chk
#P OPT Freq B3LYP/6-31G(d,p)

Frag_667

0 1
C                    -1.8244   -0.23088   0.1693
C                    -0.55927   0.56713   0.30565
C                     0.67859   0.13942   0.00576
N                     1.80903   0.97755  -0.03372
N                     1.0319   -1.17947  -0.31537
H                    -1.71383  -1.06868  -0.53035
H                    -2.17455  -0.65331   1.12207
H                    -2.64265   0.38985  -0.21513
H                    -0.65634   1.57926   0.68795
H                     2.58492   0.593     0.49461
H                     1.60291   1.91609   0.28122
H                     1.62389  -1.22999  -1.13632
H                     0.2399   -1.79977  -0.40367

