%nproc=32
%mem=180GB
%chk=B3LYP6-31Gdp.Frag_1093.chk
#P OPT Freq B3LYP/6-31G(d,p)

Frag_1093

0 1
C                    -1.06871  -0.71856  -0.07512
C                    -0.14637   0.44307   0.11944
O                    -0.71992   1.65688   0.43691
C                     1.17526   0.4031   -0.05173
O                     1.80468  -0.72158  -0.5428
H                    -1.76259  -0.54087  -0.90619
H                    -1.67586  -0.89276   0.82496
H                    -0.49934  -1.62474  -0.28494
H                    -1.56512   1.48814   0.86412
H                     1.78297   1.28963   0.10928
H                     2.6749   -0.78232  -0.13893

