%nproc=128
%mem=128GB
#P OPT Freq B3LYP/6-31G**

Frag_6

0 1
C                    -0.7125   -0.9833    0.
C                     0.7125   -0.9833    0.
C                     1.1251    0.3316    0.
N                     0.        1.1221    0.
C                    -1.1251    0.3316    0.
H                    -1.3609   -1.8482    0.
H                     1.3609   -1.8482    0.
H                     2.1133    0.7667    0.
H                     0.        2.1288    0.
H                    -2.1134    0.7667    0.

