%nproc=32
%mem=180GB
#P OPT Freq B3LYP/6-31G**

Frag_222

0 1
C                     1.4793   -0.8555   -0.3202
C                     0.6872    0.4582   -0.2621
N                     1.4054    1.4188    0.5799
C                    -0.7698    0.2654    0.2371
C                    -1.6178   -0.5454   -0.7513
O                    -0.775    -0.3599    1.4954
H                     1.5034   -1.3488    0.6745
H                     2.5244   -0.6485   -0.6348
H                     1.036    -1.5505   -1.0628
H                     0.6533    0.8728   -1.2946
H                     0.9199    2.3439    0.5281
H                     1.3753    1.1028    1.5768
H                    -1.2341    1.2761    0.3224
H                    -1.2848   -1.6035   -0.7849
H                    -2.6813   -0.5286   -0.4315
H                    -1.5544   -0.1065   -1.7697
H                    -1.6669   -0.1907    1.8977

