%nproc=32
%mem=180GB
#P OPT Freq B3LYP/6-31G**

Frag_210

0 1
C                    -0.27      0.7481    0.1765
C                    -0.5196   -0.5866    0.3792
N                     0.6548   -1.2342    0.2951
O                     1.5471   -0.3164    0.0543
N                     1.0512    0.8854   -0.0268
H                    -0.9876    1.5572    0.176
H                    -1.4759   -1.0534    0.5725

