%nproc=32
%mem=180GB
%chk=B3LYP6-31Gdp.Frag_665.chk
#P OPT Freq B3LYP/6-31G(d,p)

Frag_665

0 1
N                     1.71859   0.26257  -0.4692
C                     0.81337   0.30991   0.53851
O                     0.94766   0.94962   1.56513
C                    -0.4926   -0.466     0.27958
N                    -1.64069   0.40973   0.09355
O                    -0.33566  -1.2866   -0.85976
H                     2.60547   0.72329  -0.35016
H                     1.5643   -0.36205  -1.24267
H                    -0.68421  -1.0627    1.18276
H                    -1.39967   1.15813  -0.55283
H                    -1.86831   0.85356   0.97857
H                    -1.22816  -1.48946  -1.1636

