%nproc=32
%mem=180GB
%chk=B3LYP6-31Gdp.Frag_825.chk
#P OPT Freq B3LYP/6-31G(d,p)

Frag_825

0 1
N                     0.81703  -1.07922  -0.40722
N                     0.26979   0.2338   -0.72241
C                    -0.49881   0.59016   0.24569
O                    -0.75569  -0.1054    1.34071
O                    -1.13763   1.75942   0.22158
H                     0.57321  -1.6828   -1.18989
H                     1.82932  -0.98193  -0.45295
H                    -0.21319  -0.91626   1.18955
H                    -0.88403   2.18222  -0.61105

