%nproc=32
%mem=180GB
#P OPT Freq B3LYP/6-31G**

Frag_258

0 1
C                    -0.967     0.4235    0.8668
C                    -0.3891   -0.2612   -0.1259
O                    -1.1288   -1.197    -0.8483
C                     1.0249   -0.0611   -0.4922
N                     1.7749    0.7893    0.132
H                    -2.0073    0.2567    1.1148
H                    -0.4187    1.1562    1.4452
H                    -2.1051   -1.3817   -0.6465
H                     1.4418   -0.6431   -1.3052
H                     2.7745    0.9184   -0.1406

