%nproc=32
%mem=180GB
#P OPT Freq B3LYP/6-31G**

Frag_234

0 1
C                    -0.7874    0.4623    1.2926
C                    -0.2897    0.1357    0.0912
C                    -1.2311   -0.1176   -1.056
C                     1.2024    0.0387   -0.1016
O                     1.7077   -1.0157    0.6693
H                    -1.8595    0.541     1.448
H                    -0.1286    0.6553    2.1342
H                    -1.9133   -0.9568   -0.8032
H                    -0.6815   -0.3833   -1.9829
H                    -1.8341    0.7935   -1.2551
H                     1.6748    0.9975    0.2095
H                     1.4504   -0.1346   -1.1719
H                     2.6898   -1.0158    0.526

