%nproc=32
%mem=180GB
%chk=B3LYP6-31Gdp.Frag_778.chk
#P OPT Freq B3LYP/6-31G(d,p)

Frag_778

0 1
C                     1.89353  -0.32538  -0.13145
N                     0.83129   0.42555   0.06622
N                     0.81216   1.46385   0.86526
C                    -0.41982   0.03578  -0.64284
C                    -1.46863  -0.50956   0.32244
H                     2.79883  -0.06675   0.39529
H                     1.82604  -1.16609  -0.79962
H                    -0.12499   1.86225   0.7992
H                    -0.77652   0.93652  -1.15101
H                    -0.16607  -0.70528  -1.40221
H                    -2.37472  -0.77226  -0.23096
H                    -1.73361   0.22773   1.08364
H                    -1.09751  -1.40626   0.82613

