%nproc=32
%mem=180GB
%chk=B3LYP6-31Gdp.Frag_713.chk
#P OPT Freq B3LYP/6-31G(d,p)

Frag_713

0 1
N                     1.40029   0.02384   0.50033
C                     0.2674    0.14935  -0.26919
O                     0.21461   0.73402  -1.33792
N                    -0.86203  -0.46228   0.27875
O                    -2.03967  -0.13016  -0.42302
H                     2.25044   0.26383   0.01389
H                     1.46759  -0.78384   1.10086
H                    -1.00882  -0.25103   1.26075
H                    -1.68971   0.45627  -1.12434

