%nproc=32
%mem=180GB
%chk=B3LYP6-31Gdp.Frag_983.chk
#P OPT Freq B3LYP/6-31G(d,p)

Frag_983

0 1
C                     1.92126   0.09946   0.09566
N                     0.62286   0.72492   0.24444
N                    -0.33308  -0.08137  -0.03635
C                    -1.68023   0.51454   0.10169
N                    -0.19001  -1.31343  -0.41115
H                     2.07741  -0.26436  -0.93029
H                     2.67847   0.84229   0.35017
H                     2.02066  -0.78113   0.74681
H                    -2.24074  -0.06347   0.83942
H                    -1.564     1.54613   0.4235
H                    -2.18303   0.46211  -0.86627
H                    -1.12957  -1.6856   -0.55762

