%nproc=32
%mem=180GB
%chk=B3LYP6-31Gdp.Frag_698.chk
#P OPT Freq B3LYP/6-31G(d,p)

Frag_698

0 1
C                    -1.57721  -0.3167   -0.05236
C                    -0.44016   0.30231  -0.87563
N                     0.91245   0.22448  -0.30539
N                     0.90336   0.9026    1.00937
N                     1.2513   -1.13853  -0.10112
H                    -1.43373  -1.39493   0.0621
H                    -1.64083   0.13014   0.94277
H                    -2.53266  -0.16076  -0.5631
H                    -0.37512  -0.18543  -1.85164
H                    -0.6424    1.36531  -1.05912
H                     0.54089   1.83922   0.82117
H                     1.89223   1.06737   1.20327
H                     0.87772  -1.44752   0.80105
H                     2.26386  -1.18777  -0.03159

