%nproc=32
%mem=180GB
%chk=B3LYP6-31Gdp.Frag_474.chk
#P OPT Freq B3LYP/6-31G(d,p)

Frag_474

0 1
C                     0.77384  -0.9771   -0.5197
C                     0.4761    0.40096  -0.01212
O                     1.51581   1.31363  -0.12145
C                    -0.69526   0.85187   0.4472
N                    -1.93942   0.19061   0.42547
H                     0.9459   -0.98332  -1.60335
H                    -0.03111  -1.68476  -0.3032
H                     1.68419  -1.37659  -0.04847
H                     2.34048   0.85777   0.07793
H                    -0.74213   1.88222   0.78619
H                    -1.86777  -0.80146   0.23811
H                    -2.46065   0.32606   1.28341

