%nproc=32
%mem=180GB
%chk=B3LYP6-31Gdp.Frag_950.chk
#P OPT Freq B3LYP/6-31G(d,p)

Frag_950

0 1
N                    -0.85226   1.55892  -0.84307
C                    -0.66036   0.41465  -0.30945
N                    -1.5139   -0.32038   0.48516
C                     0.73521  -0.19748  -0.42674
N                     1.62251   0.15977   0.67314
O                     0.59343  -1.60662  -0.46002
H                    -1.79393   1.90823  -0.65034
H                    -2.49086  -0.07092   0.4643
H                    -1.31899  -1.31175   0.50219
H                     1.18113   0.18789  -1.35106
H                     1.11269   0.1136    1.55239
H                     1.93226   1.12041   0.56072
H                     1.45308  -1.95632  -0.19721

