%nproc=32
%mem=180GB
%chk=B3LYP6-31Gdp.Frag_1041.chk
#P OPT Freq B3LYP/6-31G(d,p)

Frag_1041

0 1
N                     1.67171   0.77684   0.1659
C                     0.61673  -0.09775  -0.32423
N                     0.56398  -1.35614   0.41862
N                    -0.66233   0.62947  -0.25845
N                    -1.72543  -0.13204  -0.84569
N                    -0.96915   0.93137   1.09962
H                     2.55992   0.51455  -0.24942
H                     1.46759   1.73082  -0.1152
H                     0.72015  -0.3652   -1.3873
H                     1.20165  -2.03851   0.02424
H                     0.87245  -1.17057   1.36921
H                    -1.55637  -1.12438  -0.64948
H                    -1.67111  -0.0012   -1.85262
H                    -1.72682   1.60676   1.0635
H                    -1.36287   0.09598   1.5414

