%nproc=32
%mem=180GB
%chk=B3LYP6-31Gdp.Frag_1050.chk
#P OPT Freq B3LYP/6-31G(d,p)

Frag_1050

0 1
C                    -1.55298  -0.6343   -0.40901
C                    -0.24118  -0.08537   0.16136
C                    -0.28349   1.4438    0.28939
O                    -0.02216  -0.57262   1.48088
N                     0.84654  -0.60601  -0.68158
N                     2.14423  -0.0587   -0.25016
H                    -1.50862  -1.72562  -0.47375
H                    -1.74694  -0.24291  -1.4131
H                    -2.38587  -0.34861   0.23795
H                    -0.5118    1.89708  -0.67973
H                     0.67715   1.83237   0.63047
H                    -1.05635   1.73967   1.0036
H                     0.05286  -1.53214   1.40457
H                     0.70607  -0.22582  -1.6159
H                     2.80426  -0.8087   -0.45369
H                     2.07829  -0.07225   0.7687

