%nproc=32
%mem=180GB
%chk=B3LYP6-31Gdp.Frag_909.chk
#P OPT Freq B3LYP/6-31G(d,p)

Frag_909

0 1
C                     1.61203   0.36058  -0.13223
N                     0.72583  -0.69859   0.34186
C                    -0.70871  -0.4533    0.18897
N                    -1.2786    0.79596   0.69222
N                    -1.00141  -0.47838  -1.23462
H                     1.41628   0.54044  -1.19159
H                     1.50485   1.32173   0.39913
H                     2.65018   0.03303  -0.02535
H                     0.92194  -0.91134   1.31356
H                    -1.19583  -1.25994   0.76396
H                    -1.0737    0.90449   1.6807
H                    -0.85943   1.5806    0.20093
H                    -1.99905  -0.3653   -1.37512
H                    -0.71448  -1.37008  -1.62231

