%nproc=32
%mem=180GB
%chk=B3LYP6-31Gdp.Frag_1062.chk
#P OPT Freq B3LYP/6-31G(d,p)

Frag_1062

0 1
C                    -1.06819  -0.08932   0.42211
C                    -0.13256   0.87227  -0.32215
N                    -0.50592   2.05151  -0.69073
N                     1.15094   0.48535  -0.61892
N                     1.41846  -0.86514  -0.14193
H                    -2.04193   0.3784    0.57214
H                    -1.24436  -1.02473  -0.12934
H                    -0.69016  -0.36698   1.41715
H                    -1.47154   2.21184  -0.41299
H                     1.35969  -0.99943   0.88053
H                     2.38397  -1.04205  -0.41365
H                     0.84149  -1.61172  -0.5622

