%nproc=32
%mem=180GB
%chk=B3LYP6-31Gdp.Frag_769.chk
#P OPT Freq B3LYP/6-31G(d,p)

Frag_769

0 1
C                     2.06548  -0.15215   0.13199
N                     1.07061  -0.77792   0.59083
C                    -0.28379  -0.34839   0.25783
C                    -0.55619   1.0672    0.7914
C                    -0.53805  -0.46123  -1.25393
O                    -1.107    -1.28452   0.95008
H                     3.0687   -0.49184   0.39475
H                     2.01325   0.72754  -0.52589
H                    -1.60079   1.34595   0.61525
H                     0.07662   1.81242   0.29968
H                    -0.36453   1.09396   1.86665
H                    -1.58219  -0.2222   -1.48323
H                    -0.33396  -1.48316  -1.582
H                     0.09543   0.22687  -1.82207
H                    -2.02379  -1.05253   0.76857

