%nproc=32
%mem=180GB
#P OPT=calcfc Freq B3LYP/6-31G**

Frag_241

0 1
C                    -1.6469    0.1789   -0.1312
C                    -0.2507   -0.2755    0.1251
N                     0.7472    0.4799   -0.2093
N                     2.0745    0.0875    0.0153
H                    -1.8401    1.1261    0.4148
H                    -1.7951    0.3432   -1.2191
H                    -2.364    -0.5929    0.2189
H                    -0.081    -1.239     0.5915
H                     2.3025   -0.8298    0.4611
H                     2.8535    0.7216   -0.267

