%nproc=128
%mem=128GB
#P OPT=calcfc Freq B3LYP/6-31G**

Frag_95

0 1
C                     1.4035    0.3071    0.
C                     0.0955    0.0068    0.
N                    -0.9375    0.9293    0.0001
O                    -0.3013   -1.3054    0.
H                     1.7384    1.3359    0.
H                     2.1365   -0.4862    0.
H                    -1.9049    0.6616   -0.0003
H                    -0.727     1.9113   -0.0001
H                    -1.2635   -1.3681    0.

