%nproc=32
%mem=180GB
#P OPT Freq B3LYP/6-31G**

Frag_216

0 1
C                    -1.2647   -0.2856   -0.1448
C                    -0.7786    1.1069    0.2661
N                     0.5642    1.3755   -0.2631
C                     1.5137    0.3418    0.177
N                     1.1011   -0.9953   -0.2765
C                    -0.2251   -1.3372    0.2522
H                    -2.2321   -0.5075    0.3548
H                    -1.4237   -0.3154   -1.2449
H                    -0.7694    1.1936    1.3753
H                    -1.486     1.871    -0.1225
H                     0.5226    1.3735   -1.3097
H                     2.5175    0.5715   -0.2406
H                     1.6122    0.3578    1.2855
H                     1.0602   -1.0001   -1.3231
H                    -0.5352   -2.3272   -0.1463
H                    -0.1767   -1.4234    1.3604

