%nproc=32
%mem=180GB
%chk=B3LYP6-31Gdp.Frag_683.chk
#P OPT Freq B3LYP/6-31G(d,p)

Frag_683

0 1
C                     0.80244   1.63583  -0.78177
C                     0.80693   0.51542  -0.0499
N                     1.95951  -0.13901   0.37992
C                    -0.47722  -0.24642   0.30628
C                    -0.62615  -1.48606  -0.59071
N                    -1.70346   0.53076   0.24275
O                    -0.29381  -0.6434    1.66889
H                     1.72404   2.14587  -1.04106
H                    -0.11526   2.05106  -1.17306
H                     1.84476  -0.58212   1.28136
H                     2.80068   0.41833   0.3294
H                     0.25448  -2.12116  -0.48557
H                    -1.51736  -2.04994  -0.2977
H                    -0.71992  -1.19942  -1.64282
H                    -1.53521   1.47104   0.58852
H                    -2.03748   0.61066  -0.71137
H                    -1.16698  -0.91144   1.97686

