%nproc=32
%mem=180GB
%chk=B3LYP6-31Gdp.Frag_486.chk
#P OPT Freq B3LYP/6-31G(d,p)

Frag_486

0 1
C                     2.01485   0.16935   0.11364
O                     0.75578  -0.05103   0.71802
N                    -0.26637   0.02561  -0.29812
C                    -1.15691   1.10237   0.11447
C                    -0.93492  -1.26884  -0.28769
H                     2.07661   1.16203  -0.35167
H                     2.75128   0.10153   0.92003
H                     2.24047  -0.58824  -0.64853
H                    -0.60019   2.04219   0.13394
H                    -1.96168   1.18958  -0.62209
H                    -1.59866   0.92961   1.10923
H                    -1.7329   -1.25416  -1.03655
H                    -1.36994  -1.51352   0.69486
H                    -0.21741  -2.04657  -0.55953

