%nproc=32
%mem=180GB
%chk=B3LYP6-31Gdp.Frag_578.chk
#P OPT Freq B3LYP/6-31G(d,p)

Frag_578

0 1
O                    -1.29698   1.02079   0.24839
C                    -0.627     0.05681  -0.5399
C                     0.57128  -0.57938   0.16054
O                     1.44417   0.36105   0.75483
H                    -1.3841    0.6692    1.14042
H                    -0.29229   0.59033  -1.43981
H                    -1.30187  -0.74768  -0.87889
H                     1.09067  -1.23418  -0.5599
H                     0.22491  -1.22228   0.98103
H                     1.57111   1.08534   0.13338

