%nproc=32
%mem=180GB
%chk=B3LYP6-31Gdp.Frag_612.chk
#P OPT Freq B3LYP/6-31G(d,p)

Frag_612

0 1
C                     0.94376  -0.33253   1.73539
C                     0.80978  -0.09011   0.21774
C                     1.2803   -1.35395  -0.5188
N                     1.76017   0.98864  -0.10487
C                    -0.68072   0.31098  -0.15932
C                    -0.80741   0.65386  -1.65327
C                    -1.70094  -0.79858   0.17252
N                    -0.9803    1.5586    0.5819
H                     0.6994    0.56833   2.30587
H                     0.31086  -1.15153   2.08898
H                     1.98348  -0.58157   1.96098
H                     2.32769  -1.54286  -0.26699
H                     1.21813  -1.24461  -1.60612
H                     0.69967  -2.23503  -0.23421
H                     1.89077   1.04835  -1.11057
H                     1.33424   1.86807   0.18157
H                    -0.59739  -0.20893  -2.28971
H                    -0.13674   1.469    -1.93439
H                    -1.83168   0.97508  -1.87528
H                    -1.50867  -1.72295  -0.38085
H                    -2.71026  -0.46319  -0.09177
H                    -1.70554  -1.04063   1.23925
H                    -1.20548   1.34357   1.54881
H                    -1.81323   1.99188   0.19324

