%nproc=32
%mem=180GB
%chk=B3LYP6-31Gdp.Frag_454.chk
#P OPT Freq B3LYP/6-31G(d,p)

Frag_454

0 1
C                     1.29369  -1.51867  -0.10134
N                     0.84725  -0.1584   -0.37497
C                     1.6131    0.81264   0.38547
C                    -0.60681   0.01689  -0.3688
C                    -1.27803  -0.36477   0.96886
C                    -0.97906   1.45441  -0.76502
O                    -1.06532  -0.86609  -1.39799
H                     2.33791  -1.61901  -0.41622
H                     1.24362  -1.79805   0.96748
H                     0.69067  -2.22065  -0.67615
H                     1.40392   1.831     0.05312
H                     1.44585   0.76528   1.47909
H                     2.67825   0.6254    0.21563
H                    -0.88086   0.23311   1.79495
H                    -2.35865  -0.18538   0.92783
H                    -1.11478  -1.42099   1.19577
H                    -0.7833    2.17972   0.02918
H                    -2.04964   1.49195  -0.98775
H                    -0.42924   1.743    -1.66394
H                    -2.00865  -1.0012   -1.2651

