%nproc=128
%mem=128GB
#P OPT Freq B3LYP/6-31G**

Frag_1

0 1
C                     0.       -1.3964    0.
C                     1.2094   -0.6982    0.
C                     1.2094    0.6983    0.
C                     0.        1.3964    0.
C                    -1.2094    0.6982    0.
C                    -1.2094   -0.6983    0.
H                     0.       -2.4828    0.
H                     2.1502   -1.2414    0.
H                     2.1502    1.2414    0.
H                     0.        2.4828    0.
H                    -2.1502    1.2414    0.
H                    -2.1502   -1.2414    0.

