%nproc=32
%mem=180GB
%chk=B3LYP6-31Gdp.Frag_646.chk
#P OPT Freq B3LYP/6-31G(d,p)

Frag_646

0 1
C                    -1.3791   -1.08827  -0.47491
C                    -0.46913  -0.37708   0.54132
N                    -1.14105   0.82254   1.0294
C                     0.90066  -0.10873  -0.09694
N                     1.1512    1.05518  -0.55832
N                     1.76052  -1.19124  -0.0851
H                    -2.33901  -1.32184  -0.00904
H                    -0.9327   -2.01537  -0.84911
H                    -1.56153  -0.43367  -1.33339
H                    -0.31445  -1.04703   1.3977
H                    -1.06625   1.52336   0.29297
H                    -0.59287   1.21264   1.79238
H                     2.0793    1.10579  -0.98297
H                     1.36508  -2.10673   0.06212
H                     2.53944  -1.17654  -0.72612

