%nproc=32
%mem=180GB
%chk=B3LYP6-31Gdp.Frag_823.chk
#P OPT Freq B3LYP/6-31G(d,p)

Frag_823

0 1
C                    -1.46983   0.33564  -0.01562
C                    -0.38303  -0.68723  -0.33249
N                     0.88288  -0.34624   0.31839
N                     1.48068   0.78866  -0.31487
H                    -2.4068    0.07413  -0.51763
H                    -1.65066   0.38062   1.0625
H                    -1.15993   1.32767  -0.3523
H                    -0.67073  -1.67604   0.04547
H                    -0.27313  -0.78205  -1.42831
H                     1.50213  -1.15301   0.27189
H                     2.04625   0.5127   -1.11872
H                     2.10196   1.22513   0.3577

