%nproc=32
%mem=180GB
%chk=CBS-4M.Frag_1044.chk
#P CBS-4M

Frag_1044

0 1
C                     1.31247   0.44778   0.55637
C                     0.25005  -0.14978  -0.35182
O                     0.40484  -1.54298  -0.53132
O                     0.32661   0.53267  -1.59505
C                    -1.1826    0.00582   0.2128
O                    -1.50842   1.35202   0.37504
O                    -1.31251  -0.57795   1.47552
H                     1.27072  -0.03284   1.53458
H                     2.30411   0.30968   0.11384
H                     1.13747   1.51645   0.69002
H                     1.33477  -1.72359  -0.70921
H                    -0.23412   0.04491  -2.21197
H                    -1.86925  -0.48362  -0.51095
H                    -1.19547   1.7985   -0.42184
H                    -1.03875  -1.49717   1.3738

