%nproc=32
%mem=180GB
%chk=CBS-4M.Frag_675.chk
#P CBS-4M

Frag_675

0 1
C                     0.06598   1.52925   0.68867
C                     0.52095   0.35336   0.24357
O                     1.81635  -0.0012    0.3246
C                    -0.33109  -0.69151  -0.39619
N                     0.26367  -1.69609  -0.89688
O                    -1.67015  -0.53469  -0.41727
H                     0.73702   2.24327   1.14742
H                    -0.96664   1.83175   0.5756
H                     1.8687   -0.87259  -0.11374
H                    -0.38454  -2.37181  -1.29737
H                    -1.92025   0.21017   0.14159

