%nproc=32
%mem=180GB
#P OPT=calcfc Freq B3LYP**

Frag_156

0 1
C                    -1.4451   -0.6904   -0.2578
C                    -0.2457   -0.1648    0.5376
C                    -0.3979    1.3295    0.84
C                     1.0485   -0.4341   -0.2015
N                     1.9602   -1.1919    0.3232
N                     1.2836    0.1436   -1.4886
H                    -1.3178   -1.7741   -0.4673
H                    -2.3783   -0.5588    0.3305
H                    -1.5559   -0.1488   -1.2212
H                    -0.2361   -0.7001    1.5132
H                    -1.3096    1.5025    1.4509
H                    -0.4826    1.9215   -0.096
H                     0.4795    1.6926    1.4169
H                     1.8458   -1.6413    1.2591
H                     2.1772   -0.0442   -1.9955
H                     0.574     0.7588   -1.9436

