%nproc=32
%mem=180GB
%chk=CBS-4M.Frag_496.chk
#P CBS-4M

Frag_496

0 1
C                     1.69447   0.85364   0.64876
C                     0.62534   0.11256   0.91937
C                    -0.65024   0.04308   0.10395
C                    -0.91358  -1.39987  -0.35421
N                    -0.73435   0.93374  -1.05429
H                     2.57366   0.841     1.28362
H                     1.73502   1.50546  -0.21882
H                     0.63169  -0.52413   1.80457
H                    -1.47616   0.32561   0.77486
H                    -0.93602  -2.08746   0.49649
H                    -1.8688   -1.45824  -0.88182
H                    -0.12136  -1.7361   -1.03305
H                    -0.0027    0.6979   -1.72077
H                    -0.55697   1.89283  -0.76875

