%nproc=32
%mem=180GB
%chk=CBS-4M.Frag_787.chk
#P CBS-4M

Frag_787

0 1
C                    -1.51625   0.722     0.28973
C                    -0.4633   -0.3798    0.16555
N                    -0.55008  -1.2102   -1.04791
C                     0.98015   0.16905   0.21282
O                     1.27538   0.80083   1.42792
O                     1.89411  -0.87904   0.0605
O                     1.08255   1.11204  -0.81225
H                    -1.35467   1.30434   1.20095
H                    -2.5215    0.28963   0.32866
H                    -1.46038   1.40414  -0.5629
H                    -0.54346  -1.05992   1.0215
H                    -0.5799   -0.60293  -1.86286
H                    -1.40713  -1.75346  -1.04803
H                     1.72128   0.14084   1.97018
H                     1.45241  -1.4949   -0.55009
H                     1.99059   1.43759  -0.79398

