%nproc=32
%mem=180GB
%chk=CBS-4M.Frag_629.chk
#P CBS-4M

Frag_629

0 1
C                    -0.8876    0.86342   0.71065
C                    -0.40936  -0.13932  -0.34004
N                    -0.30574  -1.46295   0.22627
O                    -1.27183  -0.18363  -1.44467
O                     0.80105   0.31985  -0.96823
N                     1.85049   0.38465   0.00856
H                    -1.82975   0.52378   1.14786
H                    -1.04649   1.82886   0.22601
H                    -0.14994   0.97786   1.50858
H                     0.29575  -1.43672   1.04388
H                     0.1432   -2.06656  -0.45877
H                    -1.94722  -0.83199  -1.21932
H                     2.14771   1.36002  -0.01386
H                     2.60974  -0.13729  -0.42682

