%nproc=32
%mem=180GB
%chk=CBS-4M.Frag_921.chk
#P CBS-4M

Frag_921

0 1
C                    -1.27257  -0.21216  -0.14499
N                     0.16719  -0.30885  -0.27672
C                     0.88218   0.27849   0.57739
O                     2.22814   0.25198   0.54643
H                    -1.60143   0.3867    0.7189
H                    -1.69764   0.23262  -1.05183
H                    -1.70351  -1.21539  -0.05051
H                     0.52624   0.86843   1.42919
H                     2.4715   -0.28182  -0.22497

