%nproc=32
%mem=180GB
%chk=CBS-4M.Frag_543.chk
#P CBS-4M

Frag_543

0 1
C                    -1.39634  -0.03878  -0.53409
C                    -0.13081  -0.15709  -0.14181
O                     0.72228  -1.18529  -0.44385
C                     0.52807   0.88585   0.72218
O                    -0.03419   1.87433   1.10654
O                     1.81085   0.62442   1.03574
H                    -1.95724   0.83015  -0.22049
H                    -1.88597  -0.78002  -1.15582
H                     0.27744  -1.83741  -0.99574
H                     2.06582  -0.21616   0.62725

