%nproc=32
%mem=180GB
%chk=CBS-4M.Frag_1077.chk
#P CBS-4M

Frag_1077

0 1
N                     1.17507  -0.23326   0.19609
C                    -0.00204  -0.15666  -0.12648
N                    -1.1817   -0.27091  -0.42834
H                     1.86557   0.29074  -0.32668
H                    -1.8569    0.37009  -0.03079

