%nproc=32
%mem=180GB
#P OPT=calcfc Freq B3LYP**

Frag_118

0 1
C                    -0.8098   -0.9296    0.6774
N                    -0.0405    0.1047   -0.0187
C                     1.3096   -0.1607   -0.5162
C                    -0.6062    1.407    -0.225
O                    -1.7654    1.6798    0.1865
H                    -0.2395   -1.8786    0.7587
H                    -1.059    -0.5838    1.7028
H                    -1.7495   -1.1341    0.1223
H                     1.631    -1.2      -0.2948
H                     2.0282    0.5372   -0.0368
H                     1.3381   -0.0128   -1.6165
H                    -0.037     2.1709   -0.7396

