%nproc=32
%mem=180GB
#P CBS-4M**

Frag_2

0 1
C                     0.3948    1.4611    0.
C                     0.4734    0.1233    0.0001
C                     1.7578   -0.6546   -0.0001
O                    -0.5893   -0.7363    0.0001
C                    -1.8904   -0.1712    0.
H                    -0.5414    2.0039   -0.0002
H                     1.3048    2.0474    0.0002
H                     1.8114   -1.3026   -0.8818
H                     1.8108   -1.3043    0.8804
H                     2.6209    0.0132    0.001
H                    -2.0581    0.4453    0.8923
H                    -2.5893   -1.0091    0.
H                    -2.058     0.4452   -0.8925

