%nproc=32
%mem=180GB
#P CBS-4M**

Frag_15

0 1
C                     1.2925   -0.6145    0.
C                     0.        0.1848   -0.0001
C                    -1.2925   -0.6145    0.
O                     0.        1.4005    0.
H                     2.1465    0.0638   -0.0005
H                     1.34     -1.266     0.8804
H                     1.3396   -1.2671   -0.8796
H                    -1.3396   -1.2672   -0.8796
H                    -1.34     -1.2659    0.8804
H                    -2.1465    0.0638   -0.0005

