%nproc=32
%mem=180GB
%chk=CBS-4M.Frag_1060.chk
#P CBS-4M

Frag_1060

0 1
N                    -1.39889  -0.00526   0.83678
C                    -0.63874  -0.50308  -0.30453
N                     0.77013  -0.57494   0.056
N                     1.31256   0.74588   0.14761
H                    -2.34438   0.2157    0.53649
H                    -0.97215   0.87835   1.10628
H                    -0.78402   0.1074   -1.22295
H                    -0.96194  -1.52576  -0.53704
H                     1.26175  -1.12835  -0.64225
H                     2.10483   0.71162   0.77954
H                     1.65086   1.07845  -0.75604

