%nproc=32
%mem=180GB
%chk=CBS-4M.Frag_553.chk
#P CBS-4M

Frag_553

0 1
C                    -0.89014  -0.9232   -1.05738
C                    -0.49709   0.0736    0.04757
C                    -0.91833   1.49511  -0.37209
C                    -1.21617  -0.29036   1.35854
C                     1.03955   0.03471   0.30135
N                     1.77483   0.52242  -0.8796
N                     1.47566  -1.3125    0.65067
H                    -0.31411  -0.74132  -1.96878
H                    -0.71765  -1.95548  -0.73749
H                    -1.95459  -0.82808  -1.29692
H                    -0.5625    2.24687   0.3433
H                    -0.54311   1.75904  -1.36597
H                    -2.0101    1.57146  -0.40957
H                    -1.01161   0.45013   2.14099
H                    -0.88492  -1.26518   1.72242
H                    -2.30053  -0.32065   1.20707
H                     1.2269    0.65535   1.19501
H                     2.77154   0.46847  -0.68824
H                     1.57423   1.5042   -1.04759
H                     2.40523  -1.28262   1.05818
H                     1.55312  -1.86187  -0.20149

