%nproc=32
%mem=180GB
%chk=CBS-4M.Frag_932.chk
#P CBS-4M

Frag_932

0 1
C                     1.76505  -0.75296   0.43324
N                     0.80205   0.06431   0.78027
O                     0.89622   0.91538   1.69436
N                    -0.47961  -0.01773   0.15991
C                    -1.08375   1.30031  -0.0186
C                    -0.57912  -0.89127  -0.99413
H                     2.66306  -0.69001   1.02501
H                     1.65459  -1.43706  -0.38594
H                    -0.65649   1.84646  -0.8747
H                    -2.15323   1.15656  -0.18708
H                    -0.93099   1.87625   0.88988
H                    -1.61262  -0.84731  -1.3437
H                    -0.3665   -1.9253   -0.7124
H                     0.08134  -0.59764  -1.82651

