%nproc=32
%mem=180GB
%chk=CBS-4M.Frag_1159.chk
#P CBS-4M

Frag_1159

0 1
C                     1.11     -0.02527  -0.44343
N                    -0.16682   0.137     0.21807
O                    -0.56689   1.46532   0.41797
C                    -1.18513  -0.77274   0.11665
O                    -1.04877  -1.91181  -0.27075
H                     1.20004  -1.0822   -0.69821
H                     1.92934   0.26434   0.22224
H                     1.15518   0.58206  -1.35414
H                    -0.29256   1.67521   1.321
H                    -2.13448  -0.33213   0.47071

