%nproc=32
%mem=180GB
%chk=CBS-4M.Frag_933.chk
#P CBS-4M

Frag_933

0 1
C                    -0.18255   0.986    -1.12311
C                     0.26919  -0.0359   -0.12804
C                     1.50745  -0.85092  -0.32886
N                    -0.39329  -0.26813   0.97595
N                    -1.61552   0.4529    1.2183
O                    -0.03885  -1.06662   1.89153
H                    -0.85529   1.71474  -0.66858
H                     0.68531   1.51494  -1.53178
H                    -0.70084   0.52909  -1.97875
H                     1.31205  -1.90597  -0.11177
H                     1.8757   -0.74654  -1.35198
H                     2.30162  -0.54082   0.36225
H                    -2.328     0.05661   0.60701
H                    -1.83698   0.1607    2.16772

