%nproc=32
%mem=180GB
#P OPT=calcfc Freq B3LYP**

Frag_365

0 1
C                     1.9008   -0.3557    0.3916
C                     1.066    -0.344    -0.6545
C                    -0.4014    0.0009   -0.5317
C                    -1.1376   -1.0002    0.3663
C                    -0.5982    1.4386   -0.0369
H                     2.9456   -0.6106    0.2475
H                     1.5558   -0.114     1.3916
H                     1.4587   -0.5931   -1.636
H                    -0.8487   -0.0682   -1.5478
H                    -0.7712   -0.9417    1.4133
H                    -0.9858   -2.0343   -0.0108
H                    -2.2275   -0.7855    0.3604
H                    -1.6777    1.7005   -0.0506
H                    -0.218     1.5595    0.9998
H                    -0.0608    2.1478   -0.7023

