%nproc=32
%mem=180GB
%chk=CBS-4M.Frag_791.chk
#P CBS-4M

Frag_791

0 1
C                    -1.77799   0.02005   0.46535
O                    -0.61733  -0.62803  -0.01773
N                     0.4921    0.26165   0.07463
C                     1.64805  -0.62269  -0.06337
O                     0.48422   1.03835  -1.13443
H                    -2.57078  -0.73169   0.4509
H                    -1.63282   0.38898   1.48801
H                    -2.0703    0.85516  -0.18495
H                     2.54498  -0.00218  -0.06277
H                     1.65979  -1.29623   0.79479
H                     1.59281  -1.2008   -0.99318
H                     0.24728   1.91712  -0.81714

