%nproc=32
%mem=180GB
%chk=CBS-4M.Frag_1039.chk
#P CBS-4M

Frag_1039

0 1
C                    -1.38771  -1.18555  -0.13936
N                    -0.52678  -0.16596   0.45649
N                    -1.34339   0.97142   0.73406
C                     0.65027   0.15313  -0.37338
N                     1.4774    1.21371   0.18863
N                     1.39978  -1.07777  -0.55118
H                    -0.81222  -2.09138  -0.32315
H                    -2.20683  -1.39164   0.55156
H                    -1.82302  -0.85508  -1.10116
H                    -1.50026   1.51881  -0.12135
H                    -0.83997   1.56833   1.38141
H                     0.33164   0.5079   -1.37375
H                     1.66233   1.01329   1.1699
H                     1.00605   2.11212   0.14602
H                     2.27448  -0.85001  -1.01372
H                     1.63815  -1.4414    0.36919

