%nproc=32
%mem=180GB
#P CBS-4M**

Frag_232

0 1
N                     1.9806   -0.6069   -0.5513
N                     0.7242   -0.6835   -0.7489
C                    -0.2637    0.0581   -0.0131
N                     0.0357    1.1304    0.6538
N                    -1.6236   -0.3678   -0.0663
H                     2.4086   -0.0103    0.1891
H                     0.9942    1.5359    0.709
H                    -1.8882   -1.2165   -0.6137
H                    -2.3679    0.1607    0.4414

