%nproc=32
%mem=180GB
#P OPT=calcfc Freq B3LYP**

Frag_181

0 1
C                     2.2906   -0.5577   -0.3248
C                     1.6241    0.4426    0.3828
N                     0.3263    0.2318    0.1586
C                     0.2309   -0.8084   -0.6182
N                     1.4025   -1.3659   -0.9709
O                    -1.0566   -1.1563   -0.9433
C                    -1.9213   -0.2107   -0.2865
C                    -0.9737    0.7646    0.4865
H                     3.3637   -0.6881   -0.3655
H                     2.0447    1.2323    0.9909
H                    -2.596    -0.7436    0.4169
H                    -2.5201    0.3398   -1.043
H                    -1.0693    1.806     0.1112
H                    -1.1458    0.7137    1.583

