%nproc=32
%mem=180GB
#P CBS-4M**

Frag_189

0 1
C                    -0.8574   -0.0193   -0.0523
N                     0.4252   -0.1817   -0.7161
N                     1.476    -0.015    -0.097
N                     2.5262    0.1515    0.5212
H                    -0.9544    1.0171    0.3352
H                    -0.9425   -0.7405    0.7881
H                    -1.6731   -0.2121   -0.7791

