%nproc=32
%mem=180GB
%chk=CBS-4M.Frag_1063.chk
#P CBS-4M

Frag_1063

0 1
C                     1.87737   0.05641  -0.08059
C                     0.58764   0.22953  -0.14646
C                    -0.70435   0.43119  -0.18724
N                    -1.69413  -0.31054   0.49185
H                     2.42261  -0.52405  -0.82359
H                     2.47915   0.48527   0.71992
H                    -1.09489   1.28862  -0.73171
H                    -1.35043  -1.20083   0.82945
H                    -2.52287  -0.45561  -0.07163

