%nproc=32
%mem=180GB
%chk=CBS-4M.Frag_499.chk
#P CBS-4M

Frag_499

0 1
C                    -1.55056  -0.16295   1.25279
C                    -0.7213   -0.35659  -0.02071
C                    -1.31105   0.46234  -1.17278
O                    -0.84665  -1.76606  -0.31863
C                     0.80586  -0.0827    0.24094
C                     1.07702   1.28642   0.87001
C                     1.64375  -0.23557  -1.04347
O                     1.25052  -1.04898   1.19206
H                    -2.54605  -0.58759   1.10044
H                    -1.66119   0.89615   1.49738
H                    -1.07647  -0.66889   2.09595
H                    -0.8128    0.24569  -2.12332
H                    -2.37301   0.22554  -1.28672
H                    -1.22142   1.53663  -0.98838
H                    -0.58612  -1.903    -1.23529
H                     0.74599   2.10253   0.22152
H                     0.58112   1.37884   1.83786
H                     2.15219   1.40102   1.03576
H                     2.70219  -0.21865  -0.77179
H                     1.45329  -1.19351  -1.53989
H                     1.46176   0.56747  -1.76392
H                     0.83284  -1.87824   0.9201

