%nproc=32
%mem=180GB
%chk=CBS-4M.Frag_711.chk
#P CBS-4M

Frag_711

0 1
C                     1.74743  -0.01182   0.14808
C                     0.44729  -0.25227   0.27246
O                    -0.48868   0.46647  -0.41453
N                    -1.81435   0.0063   -0.10045
H                     2.45624  -0.60418   0.71018
H                     2.127     0.76536  -0.50379
H                     0.02367  -1.01916   0.91249
H                    -2.28918   0.85647   0.20459
H                    -2.20941  -0.20698  -1.01682

