%nproc=32
%mem=180GB
#P OPT=calcfc Freq B3LYP**

Frag_287

0 1
C                    -1.7182   -0.7912    0.644
C                    -0.767     0.3074    0.1437
N                    -0.9729    0.5674   -1.2851
C                     0.7118   -0.0432    0.4413
C                     1.6485    1.1253    0.0959
N                     1.1186   -1.2653   -0.2606
H                    -2.7721   -0.4901    0.4643
H                    -1.5284   -1.7506    0.1176
H                    -1.583    -0.9473    1.7355
H                    -1.0144    1.236     0.7065
H                    -0.9667   -0.3357   -1.813
H                    -1.9225    0.9874   -1.4122
H                     0.803    -0.2232    1.5366
H                     1.3567    2.0321    0.6672
H                     2.6938    0.8655    0.3672
H                     1.6106    1.3568   -0.9898
H                     1.2578   -1.0594   -1.2766
H                     2.0445   -1.5721    0.1173

