%nproc=32
%mem=180GB
%chk=CBS-4M.Frag_812.chk
#P CBS-4M

Frag_812

0 1
C                     1.95973   0.30186  -0.00558
O                     0.7637   -0.05767  -0.66763
N                    -0.28809  -0.17892   0.30585
C                    -1.25453  -1.05418  -0.34836
N                    -0.79524   1.12783   0.51922
H                     2.25675  -0.45978   0.72685
H                     1.85533   1.26973   0.49957
H                     2.72152   0.38157  -0.78585
H                    -2.10616  -1.18697   0.32356
H                    -1.60443  -0.63313  -1.3053
H                    -0.7882   -2.02288  -0.537
H                    -1.51222   1.36566  -0.17044
H                    -1.20818   1.14688   1.44513

