%nproc=32
%mem=180GB
%chk=CBS-4M.Frag_722.chk
#P CBS-4M

Frag_722

0 1
C                    -0.78892  -0.11678   0.0439
N                     0.57219   0.47018  -0.17222
N                     1.63408  -0.18452   0.06381
O                     0.56383   1.63062  -0.59279
H                    -1.30718  -0.07911  -0.91416
H                    -0.72244  -1.13952   0.41399
H                    -1.30267   0.5261    0.7586
H                     1.35112  -1.10686   0.39878

