%nproc=32
%mem=180GB
%chk=CBS-4M.Frag_826.chk
#P CBS-4M

Frag_826

0 1
N                     1.14174  -0.80037  -0.4512
C                     0.1486   -0.21647   0.05016
O                     0.04343   1.13529   0.22673
O                    -0.93166  -0.92054   0.46973
H                     1.80457  -0.11203  -0.80175
H                    -0.88426   1.39701   0.18
H                    -1.32242  -0.48299   1.23492

