%nproc=32
%mem=180GB
%chk=CBS-4M.Frag_816.chk
#P CBS-4M

Frag_816

0 1
C                     1.78833  -0.18039   0.37058
N                     0.41878  -0.6581    0.26182
N                    -0.37309   0.2612   -0.10543
C                    -1.79527  -0.12418  -0.24664
O                    -0.08603   1.4485   -0.35936
H                     2.14512   0.21489  -0.58895
H                     2.40817  -1.01896   0.68769
H                     1.86248   0.64193   1.09349
H                    -1.90491  -1.17691   0.00165
H                    -2.089     0.08064  -1.27692
H                    -2.37468   0.51139   0.42426

