%nproc=32
%mem=180GB
#P CBS-4M**

Frag_40

0 1
C                     1.4658    1.1116    0.
C                     0.7323   -0.0007    0.
O                     1.1634   -1.2639    0.
N                    -0.7544    0.0922    0.
O                    -1.3428   -0.9993    0.
O                    -1.2949    1.1872   -0.0001
H                     0.9819    2.0765    0.
H                     2.5456    1.0429    0.0001
H                     0.3586   -1.8224    0.

