%nproc=32
%mem=180GB
%chk=CBS-4M.Frag_595.chk
#P CBS-4M

Frag_595

0 1
C                     1.76954  -0.50385  -0.05776
C                     0.5989    0.09618  -0.81059
O                     0.5577    0.15783  -2.01772
C                    -0.58631   0.61453   0.0235
C                    -1.69514  -0.43885   0.03052
O                    -0.24748   0.88286   1.37719
H                     2.30772   0.28065   0.48612
H                     1.42483  -1.21496   0.69882
H                     2.44806  -0.98523  -0.76276
H                    -0.95651   1.51659  -0.48401
H                    -1.99544  -0.67422  -0.99281
H                    -1.35101  -1.35548   0.51995
H                    -2.55838  -0.06062   0.58373
H                     0.28344   1.68458   1.40594

