%nproc=32
%mem=180GB
%chk=CBS-4M.Frag_1152.chk
#P CBS-4M

Frag_1152

0 1
C                     2.21416  -0.3465   -0.28379
C                     1.06072  -0.01847  -0.2051
C                    -0.33237   0.33383  -0.07237
N                    -0.7407    1.45689  -0.52924
N                    -1.09566  -0.66396   0.51819
H                     3.23963  -0.60976  -0.37202
H                    -1.74396   1.57156  -0.3662
H                    -1.99596  -0.38611   0.87925
H                    -0.60596  -1.33748   1.08637

