%nproc=32
%mem=180GB
#P CBS-4M**

Frag_167

0 1
O                    -1.7391   -1.5521    0.5616
N                    -1.4376   -0.4252    0.1189
O                    -2.4102    0.5417    0.0185
C                    -0.1593   -0.2325   -0.5531
C                     1.0429   -0.4067    0.3594
C                     0.6052    0.9863   -0.0654
H                    -0.0558   -0.519    -1.6209
H                     0.8139   -0.6478    1.4197
H                     1.9589   -0.7684   -0.1534
H                     1.2625    1.4521   -0.8296
H                     0.1187    1.5716    0.7443

