%nproc=32
%mem=180GB
#P OPT=calcfc Freq B3LYP**

Frag_406

0 1
C                    -0.4844   -0.6091   -0.6795
N                    -0.0043    0.3404    0.3332
N                    -0.7054    1.5331    0.5954
N                     1.1572    0.0831    1.0897
N                     1.8715   -0.9622    0.9448
H                    -1.4106   -0.2499   -1.174
H                    -0.7074   -1.5859   -0.2013
H                     0.2901   -0.7437   -1.4633
H                    -1.5679    1.5821    0.0076
H                    -0.0909    2.3233    0.2946
H                     1.6521   -1.7112    0.2528

