%nproc=32
%mem=180GB
#P CBS-4M**

Frag_224

0 1
C                     2.0248    0.0401   -0.4955
C                     0.8498   -0.6093    0.2546
O                     1.0601   -0.4737    1.6386
C                    -0.5536   -0.0364   -0.1301
C                    -0.6836    1.4603    0.2404
C                    -1.6347   -0.8282    0.6395
N                    -0.7884   -0.218    -1.5719
H                     1.9377   -0.1149   -1.5901
H                     2.0949    1.1243   -0.2734
H                     2.9759   -0.4336   -0.1721
H                     0.8536   -1.6934   -0.0122
H                     1.7487   -1.1416    1.8957
H                     0.0133    2.0852   -0.355
H                    -0.4733    1.6224    1.319
H                    -1.7133    1.8217    0.0304
H                    -1.5794   -1.9086    0.385
H                    -2.6516   -0.4653    0.376
H                    -1.5076   -0.7165    1.7377
H                    -0.1957    0.4487   -2.117
H                    -1.7777    0.0368   -1.7996

