%nproc=32
%mem=180GB
%chk=CBS-4M.Frag_1144.chk
#P CBS-4M

Frag_1144

0 1
C                     1.49898  -0.2771   -0.19638
N                     0.47446   0.43723  -0.00935
C                    -0.73796   0.10715  -0.73762
O                    -1.83564   0.05696   0.13652
H                     2.42368  -0.04135   0.33257
H                     1.52552  -1.14304  -0.87351
H                    -0.69109  -0.87444  -1.23309
H                    -0.86657   0.88203  -1.51187
H                    -1.79148   0.85257   0.67963

