%nproc=32
%mem=180GB
%chk=CBS-4M.Frag_1155.chk
#P CBS-4M

Frag_1155

0 1
C                    -1.2096   -0.23784  -0.2012
C                    -0.08787   0.72544   0.19473
N                     1.09145   0.11107   0.81054
O                     1.60399  -0.8841   -0.10233
H                    -0.83751  -0.98784  -0.90302
H                    -2.03649   0.30112  -0.67549
H                    -1.60838  -0.75826   0.67754
H                    -0.45089   1.46295   0.92239
H                     0.26141   1.28451  -0.6805
H                     0.77526  -0.44971   1.60204
H                     2.49853  -0.56714  -0.2654

