%nproc=32
%mem=180GB
%chk=CBS-4M.Frag_824.chk
#P CBS-4M

Frag_824

0 1
C                    -1.47172  -0.18872   0.29417
O                    -0.1663   -0.7712    0.25289
C                     0.85338   0.0897    0.08143
N                     0.70671   1.33815  -0.03908
O                     2.02681  -0.57785   0.05959
H                    -1.68604   0.33611  -0.64003
H                    -2.16185  -1.02106   0.43662
H                    -1.54728   0.52236   1.12046
H                     1.60971   1.79044  -0.15809
H                     1.83659  -1.51793   0.17404

