%nproc=32
%mem=180GB
%chk=CBS-4M.Frag_1025.chk
#P CBS-4M

Frag_1025

0 1
C                     1.53111  -0.15893  -0.02805
C                     0.04073  -0.15397  -0.33753
N                    -0.6813   -1.06992   0.50115
O                    -0.34074   1.2302   -0.19636
O                    -1.71142   1.33453  -0.6497
H                     2.06045   0.54002  -0.67872
H                     1.70665   0.13756   1.01144
H                     1.92941  -1.16464  -0.17489
H                    -0.14616  -0.43744  -1.38025
H                    -1.67042  -1.0277    0.27969
H                    -0.56858  -0.81942   1.47979
H                    -2.14964   1.5897    0.17343

