%nproc=32
%mem=180GB
%chk=CBS-4M.Frag_1120.chk
#P CBS-4M

Frag_1120

0 1
C                    -1.24929  -0.05881   0.31313
N                     0.04111   0.13895  -0.34255
N                     0.97248  -0.0096    0.44176
O                     2.17839   0.18881  -0.23097
H                    -1.15198  -0.30051   1.37659
H                    -1.83919   0.85455   0.18777
H                    -1.77715  -0.86329  -0.20829
H                     2.82552   0.04991   0.47236

