%nproc=32
%mem=180GB
%chk=CBS-4M.Frag_756.chk
#P CBS-4M

Frag_756

0 1
C                    -0.78954   1.19131  -0.41079
C                     0.05145   0.02262   0.04894
C                    -0.66025  -1.20505   0.56902
C                     1.35963   0.06895  -0.01109
N                     2.58454   0.1614    0.05281
H                    -0.17567   2.02566  -0.75738
H                    -1.42544   1.55549   0.40643
H                    -1.45756   0.89639  -1.23048
H                    -1.32188  -1.6298   -0.19711
H                    -1.28955  -0.95104   1.43175
H                     0.04049  -1.9829    0.88053
H                     3.08378  -0.15302  -0.78273

