%nproc=32
%mem=180GB
#P CBS-4M**

Frag_21

0 1
C                    -1.6568   -0.8667    0.1477
C                    -0.5744   -0.0933   -0.0476
C                    -0.6606    1.4125   -0.0477
N                     0.6871   -0.6305   -0.341
C                     1.9011   -0.0205    0.1866
H                    -2.6411   -0.4298    0.2604
H                    -1.5911   -1.9513    0.1608
H                    -0.0994    1.8541    0.7844
H                    -1.6998    1.7325    0.0445
H                    -0.2491    1.8291   -0.9745
H                     0.6953   -1.6393   -0.2487
H                     2.0006    1.0062   -0.1754
H                     2.7635   -0.5799   -0.1858
H                     1.9559    0.0004    1.2877

