%nproc=32
%mem=180GB
%chk=CBS-4M.Frag_997.chk
#P CBS-4M

Frag_997

0 1
C                     1.97358  -0.90356   0.76792
C                     1.20548  -0.2156   -0.07414
O                     1.77288   0.33657  -1.19432
C                    -0.30024  -0.00754   0.08159
C                    -0.65319   1.49414  -0.08674
C                    -1.0414   -0.84086  -0.98345
N                    -0.71013  -0.50765   1.39994
H                     1.54061  -1.39987   1.62229
H                     3.03545  -1.0042    0.58004
H                     1.13522   0.90432  -1.63459
H                    -0.10225   2.10633   0.63414
H                    -1.72477   1.63547   0.08716
H                    -0.45009   1.89219  -1.08941
H                    -0.86526  -1.90415  -0.80812
H                    -0.69942  -0.59313  -1.9923
H                    -2.11994  -0.65092  -0.9392
H                    -0.28106   0.05729   2.12825
H                    -1.71547  -0.39872   1.50085

