%nproc=32
%mem=180GB
%chk=CBS-4M.Frag_542.chk
#P CBS-4M

Frag_542

0 1
C                    -0.32514  -0.5894   -1.34795
C                    -0.00688  -0.01071   0.04097
C                    -1.29418   0.34644   0.79424
N                     0.84909  -0.97209   0.77316
C                     0.82152   1.2831   -0.19491
O                     0.32792   2.31449  -0.56896
O                     2.13313   1.13232   0.01755
H                    -0.83932   0.15787  -1.95528
H                    -0.97184  -1.46914  -1.25527
H                     0.59215  -0.88411  -1.86742
H                    -1.94382  -0.53052   0.87994
H                    -1.06884   0.70958   1.80324
H                    -1.83001   1.14      0.27039
H                     0.64138  -1.9267    0.50098
H                     0.69093  -0.90558   1.77414
H                     2.22371   0.20455   0.33518

