%nproc=32
%mem=180GB
%chk=CBS-4M.Frag_1035.chk
#P CBS-4M

Frag_1035

0 1
C                     1.01605  -0.47999  -1.31462
C                     0.62975  -0.17128   0.1361
C                     0.77631  -1.41387   1.02269
C                     1.49055   0.96198   0.70731
N                    -0.88535   0.30354   0.28192
C                    -1.83598  -0.75073  -0.2108
C                    -1.14422   1.55033  -0.51585
O                    -1.16776   0.56024   1.57794
H                     0.93634   0.3929   -1.96794
H                     2.06402  -0.79745  -1.33216
H                     0.4285   -1.29591  -1.74379
H                     1.83618  -1.6052    1.20951
H                     0.36194  -2.31236   0.55635
H                     0.26766  -1.22367   1.9695
H                     2.49481   0.58565   0.91866
H                     1.59772   1.79845   0.01068
H                     1.02988   1.31173   1.63295
H                    -2.83493  -0.3549   -0.03367
H                    -1.69944  -1.63817   0.40061
H                    -1.6955   -0.97746  -1.27093
H                    -0.50435   2.33705  -0.12641
H                    -2.18226   1.81615  -0.32145
H                    -0.97993   1.40296  -1.58651

