%nproc=32
%mem=180GB
%chk=CBS-4M.Frag_990.chk
#P CBS-4M

Frag_990

0 1
C                    -0.85235  -0.58341  -0.04788
N                     0.234     0.37724   0.05779
N                     1.54974   0.04147  -0.25066
N                     0.07065   1.65279   0.45414
O                    -1.07363   1.96515   0.72851
H                    -0.94165  -0.94586  -1.07822
H                    -1.76791  -0.07047   0.24692
H                    -0.67196  -1.43708   0.61525
H                     1.60097  -0.27407  -1.21683
H                     1.85204  -0.72567   0.34598

