%nproc=32
%mem=180GB
#P CBS-4M**

Frag_104

0 1
C                     1.4926    0.4682   -0.0752
C                     0.6383   -0.5419    0.1267
N                    -0.7134   -0.5504   -0.2498
C                    -1.4734    0.3994    0.1204
H                     2.5417    0.3663    0.1788
H                     1.1757    1.3947   -0.5438
H                     0.9833   -1.4937    0.5271
H                    -1.1435    1.2131    0.7802
H                    -2.5079    0.4183   -0.2248

