%nproc=32
%mem=180GB
%chk=CBS-4M.Frag_832.chk
#P CBS-4M

Frag_832

0 1
C                    -1.66686   0.57593   0.09998
C                    -0.57961  -0.24019  -0.60015
C                    -0.81833  -1.74257  -0.50012
N                     0.87096   0.07821  -0.15644
C                     1.16813   1.52846  -0.40104
C                     1.08927  -0.21834   1.29882
O                     1.73118  -0.65919  -0.89525
H                    -1.54202   1.65424  -0.023
H                    -2.63551   0.31075  -0.33582
H                    -1.72396   0.34988   1.16939
H                    -0.53026   0.02821  -1.6587
H                    -1.06193  -2.0552    0.52106
H                    -1.66307  -2.01868  -1.13762
H                     0.08127  -2.25448  -0.84393
H                     0.96529   1.72551  -1.45329
H                     2.23463   1.64693  -0.21615
H                     0.58552   2.19397   0.24196
H                     0.92191  -1.28303   1.44549
H                     0.43675   0.37439   1.94692
H                     2.13647   0.00509   1.49787

