%nproc=32
%mem=180GB
%chk=CBS-4M.Frag_984.chk
#P CBS-4M

Frag_984

0 1
C                    -0.8126    1.27405   0.58401
C                    -0.33752   0.1312    0.10399
C                    -1.09996  -1.13972  -0.09202
N                     1.07298   0.07972  -0.31907
N                     1.24765  -0.53382  -1.43406
N                     2.00929   0.61878   0.38815
H                    -1.84427   1.34313   0.90574
H                    -0.20478   2.16786   0.6498
H                    -2.11872  -1.02467   0.2836
H                    -0.61786  -1.9699    0.43513
H                    -1.12597  -1.40537  -1.15114
H                     2.2599   -0.50161  -1.59793
H                     1.57174   0.96035   1.24361

