%nproc=32
%mem=180GB
#P CBS-4M**

Frag_153

0 1
C                     1.2879    0.1441   -1.5669
N                     0.8735    0.4689   -0.1853
C                     1.8805   -0.0601    0.7584
C                    -0.5463    0.1013    0.1492
C                    -0.7396   -1.4225    0.3545
C                    -1.5163    0.5703   -0.9664
C                    -0.9758    0.836     1.4424
H                     0.75      0.7837   -2.296
H                     2.3664    0.3682   -1.7191
H                     1.1192   -0.9264   -1.8048
H                     2.0073   -1.1585    0.6425
H                     1.6252    0.1753    1.8086
H                     2.863     0.4237    0.5701
H                    -1.8101   -1.6525    0.5465
H                    -0.4286   -1.9955   -0.5422
H                    -0.1654   -1.7908    1.2302
H                    -2.5765    0.4456   -0.6557
H                    -1.3867   -0.0275   -1.8935
H                    -1.3472    1.6434   -1.2009
H                    -0.7274    1.9168    1.3712
H                    -2.07      0.7395    1.614
H                    -0.4833    0.4168    2.343

