%nproc=32
%mem=180GB
#P CBS-4M**

Frag_47

0 1
N                    -1.8713    0.0284    0.0001
C                    -0.6962   -0.7495   -0.0001
N                     0.6406    0.0581    0.
O                     1.6694   -0.6063    0.0001
O                     0.5657    1.2815    0.
H                    -1.9322    0.6229   -0.8199
H                    -1.9323    0.6224    0.8204
H                    -0.6115   -1.3781    0.8882
H                    -0.6115   -1.3777   -0.8887

