%nproc=32
%mem=180GB
%chk=CBS-4M.Frag_709.chk
#P CBS-4M

Frag_709

0 1
C                     1.78001  -0.63633  -0.64355
C                     0.93075  -0.20087   0.28948
O                     1.21692  -0.24106   1.60999
C                    -0.45953   0.36613  -0.03132
C                    -1.53247  -0.71617  -0.08084
O                    -0.83144   1.24657   1.04475
O                    -0.45336   1.06209  -1.24681
H                     2.75364  -1.02508  -0.37387
H                     1.48931  -0.65898  -1.68517
H                     0.54192   0.3137    2.03675
H                    -1.60016  -1.22271   0.88481
H                    -1.28582  -1.44856  -0.85126
H                    -2.49552  -0.25324  -0.3085
H                    -0.5186    2.12487   0.79796
H                     0.46434   1.28984  -1.44241

