%nproc=32
%mem=180GB
#P CBS-4M**

Frag_84

0 1
C                    -1.2052   -0.1418    0.
C                     0.1901    0.409     0.
N                     1.2076   -0.3565    0.
H                    -1.7573    0.2093   -0.8805
H                    -1.1777   -1.2332    0.
H                    -1.7573    0.2092    0.8804
H                     0.261     1.5084    0.
H                     2.0689    0.1986    0.

