%nproc=32
%mem=180GB
%chk=CBS-4M.Frag_687.chk
#P CBS-4M

Frag_687

0 1
N                     1.71132  -0.25756  -0.07371
C                     0.62711   0.60624  -0.09353
O                     0.72088   1.7749   -0.42268
N                    -0.59296   0.02725   0.24594
N                    -1.75275   0.78377  -0.04178
N                    -0.78612  -1.3621    0.17272
H                     2.59169   0.23418  -0.10173
H                     1.68489  -1.04327   0.55636
H                    -1.50818   1.4221   -0.7988
H                    -1.93202   1.37995   0.76323
H                    -0.25984  -1.76379  -0.5989
H                    -0.50412  -1.80167   1.04268

