%nproc=32
%mem=180GB
%chk=CBS-4M.Frag_570.chk
#P CBS-4M

Frag_570

0 1
N                     1.52597  -0.8602    0.10772
N                     0.29464  -0.89843   0.07267
C                    -0.35914   0.45132   0.13496
O                     0.23911   1.48192   0.21181
O                    -1.6751    0.31767   0.09201
H                     1.84273   0.13933   0.17506
H                    -1.86811  -0.63161   0.03078

