%nproc=32
%mem=180GB
%chk=CBS-4M.Frag_1020.chk
#P CBS-4M

Frag_1020

0 1
C                    -1.085     0.60491   0.98294
N                    -0.53567  -0.41806   0.10535
C                    -1.29692  -0.5764   -1.12407
C                     0.88011  -0.34215  -0.11707
N                     1.61824  -0.31479   1.12883
O                     1.15159   0.80665  -0.9466
H                    -2.13827   0.37602   1.17326
H                    -1.02856   1.62412   0.56549
H                    -0.56424   0.58384   1.94339
H                    -2.3286   -0.84724  -0.87573
H                    -1.31581   0.32798  -1.75261
H                    -0.86859  -1.39058  -1.71871
H                     1.17341  -1.25449  -0.6573
H                     1.67676   0.64194   1.46522
H                     2.56844  -0.63385   0.97696
H                     2.09311   0.8122   -1.14935

