%nproc=32
%mem=180GB
%chk=CBS-4M.Frag_1031.chk
#P CBS-4M

Frag_1031

0 1
C                    -0.8948    0.10639  -1.2997
C                    -0.2535   -0.1151    0.08463
N                    -0.63031   1.04682   0.92912
N                    -0.62551  -1.42907   0.58117
C                     1.27649  -0.03584  -0.05802
N                     2.00041  -1.07388  -0.07728
O                     1.73719   1.22733  -0.17611
H                    -0.57198  -0.68685  -1.97467
H                    -0.62308   1.07795  -1.72112
H                    -1.98576   0.05263  -1.21048
H                    -0.45515   0.83733   1.90829
H                    -1.61968   1.25102   0.83135
H                    -1.4661   -1.38857   1.1437
H                     0.13397  -1.84724   1.10558
H                     2.98327  -0.81666  -0.18333
H                     0.99473   1.79383   0.11699

