%nproc=32
%mem=180GB
#P CBS-4M**

Frag_157

0 1
C                    -0.3613    0.6607    0.223
C                     1.0393    0.1079    0.1688
O                     0.6102   -1.1158   -0.3767
C                    -0.727    -0.6789   -0.3616
H                    -0.736     0.8029    1.2598
H                    -0.5261    1.5052   -0.4807
H                     1.4884   -0.036     1.1763
H                     1.6956    0.6573   -0.5417
H                    -1.3451   -1.2982    0.3253
H                    -1.1379   -0.605    -1.3927

