%nproc=32
%mem=180GB
%chk=CBS-4M.Frag_651.chk
#P CBS-4M

Frag_651

0 1
C                    -1.69201   0.19692   0.24345
C                    -0.3617   -0.48781   0.09236
O                    -0.17517  -1.67179   0.26111
C                     0.8179    0.43316  -0.30868
N                     1.97828  -0.24823  -0.42583
O                     0.66313   1.62653  -0.48561
H                    -1.95904   0.69591  -0.69352
H                    -1.61576   0.99058   0.99346
H                    -2.45547  -0.52805   0.52544
H                     2.82314   0.23324  -0.6819
H                     1.97671  -1.24045  -0.25218

