%nproc=32
%mem=180GB
#P CBS-4M**

Frag_100

0 1
C                    -2.0247   -0.0853   -0.1106
N                    -0.7378   -0.6536    0.2709
C                     0.4423   -0.0107   -0.3201
C                     1.6726   -0.8707   -0.0149
C                     0.6675    1.4499    0.1142
H                    -2.8261   -0.6563    0.3688
H                    -2.1553   -0.1849   -1.1945
H                    -2.174     0.9786    0.1433
H                    -0.647    -0.647     1.2852
H                     0.2791   -0.0211   -1.4077
H                     2.5673   -0.4699   -0.502
H                     1.515    -1.8979   -0.3535
H                     1.8687   -0.8968    1.0647
H                     1.5356    1.8836   -0.3942
H                     0.8524    1.5062    1.1944
H                    -0.1966    2.0817   -0.1127

