%nproc=32
%mem=180GB
#P OPT=calcfc Freq B3LYP**

Frag_284

0 1
C                    -0.8717   -0.0641    0.0049
N                     0.402    -0.4667   -0.5763
C                     1.5097   -0.01     -0.1485
O                     2.5871    0.4342    0.2677
H                    -1.501     0.4029   -0.7807
H                    -0.7319    0.6643    0.8348
H                    -1.3941   -0.9606    0.3981

