%nproc=32
%mem=180GB
%chk=CBS-4M.Frag_533.chk
#P CBS-4M

Frag_533

0 1
C                    -1.10878  -0.17002  -0.03716
N                     0.07782  -0.64964  -0.67975
N                     1.13241   0.08193  -0.0566
H                    -1.96753  -0.69266  -0.46923
H                    -1.14836  -0.34443   1.0698
H                    -1.30202   0.9273   -0.16311
H                     2.01052  -0.21993  -0.47739
H                     1.22429  -0.05618   0.97865
H                     1.08175   1.12353  -0.1651

