%nproc=32
%mem=180GB
%chk=CBS-4M.Frag_926.chk
#P CBS-4M

Frag_926

0 1
C                     1.52951   1.04224   0.64972
N                     0.9632   -0.18438   0.09466
N                     1.48972  -0.35272  -1.21677
C                    -0.52111  -0.30992   0.20395
C                    -1.30351   0.81432  -0.49514
N                    -0.80026  -0.25765   1.63502
N                    -0.97449  -1.58498  -0.35615
H                     2.61408   0.92596   0.70617
H                     1.12108   1.21045   1.64554
H                     1.31984   1.93317   0.03198
H                     0.98794   0.2259   -1.89825
H                     1.36381  -1.32125  -1.48868
H                    -1.06208   1.78139  -0.05201
H                    -2.37756   0.64042  -0.39161
H                    -1.08106   0.85184  -1.56729
H                    -0.22373  -0.95851   2.0951
H                    -1.76796  -0.53129   1.7778
H                    -0.8986   -1.59314  -1.36919
H                    -0.37881  -2.33187  -0.00485

