%nproc=32
%mem=180GB
%chk=CBS-4M.Frag_1092.chk
#P CBS-4M

Frag_1092

0 1
C                     1.78843   0.63208  -0.11861
C                     0.71017  -0.41276   0.14742
O                     0.53099  -0.65499   1.54525
C                    -0.6877   -0.01026  -0.37926
N                    -1.70474  -1.05106  -0.20235
N                    -1.10658   1.21334   0.28245
O                    -0.52043   0.16941  -1.76678
H                     1.88541   0.8041   -1.19234
H                     2.75811   0.28893   0.26304
H                     1.53273   1.58041   0.35981
H                     0.97425  -1.35021  -0.36553
H                     1.40051  -0.74069   1.94672
H                    -1.77909  -1.27468   0.78673
H                    -1.39937  -1.90082  -0.6724
H                    -0.85777   1.14833   1.26583
H                    -2.11981   1.27857   0.23444
H                    -1.405     0.28039  -2.13432

