%nproc=32
%mem=180GB
%chk=CBS-4M.Frag_731.chk
#P CBS-4M

Frag_731

0 1
N                     1.27437  -1.46089  -0.03486
C                     0.69272  -0.39967  -0.41183
C                    -0.47579   0.13597   0.36496
N                    -0.99915  -0.43965   1.3746
N                    -0.997     1.308    -0.1531
H                     2.04436  -1.70695  -0.65832
H                     0.98495   0.17897  -1.30001
H                    -0.50524  -1.31868   1.53896
H                    -1.66368   1.76418   0.45315
H                    -0.35544   1.93872  -0.60855

