%nproc=32
%mem=180GB
#P CBS-4M**

Frag_264

0 1
C                    -0.828    -1.0964   -0.2063
C                     0.061     0.1237    0.0164
N                     1.4367    0.0643   -0.4606
O                     1.6892    0.3015   -1.6598
O                     2.41     -0.4946    0.3346
C                    -0.5354    1.388    -0.0691
C                    -0.109     0.8359    1.2102
H                    -1.8518   -0.9407    0.2002
H                    -0.3769   -1.9788    0.2941
H                    -0.9055   -1.3037   -1.2942
H                    -0.9847    2.1843   -0.6519
H                    -0.0054    0.9163    2.2865

