%nproc=32
%mem=180GB
%chk=CBS-4M.Frag_849.chk
#P CBS-4M

Frag_849

0 1
C                     2.26392   0.14864  -0.07632
C                     1.38971   0.13043   1.16292
O                     1.82495   0.1963    2.29613
N                    -0.55269  -0.04727  -0.31637
C                    -1.41234   1.1053   -0.57099
C                    -1.2509   -1.31762  -0.49218
N                     0.03616   0.03293   0.94529
H                     2.12558  -0.75935  -0.6693
H                     3.30157   0.22684   0.24721
H                     2.01097   0.99219  -0.72417
H                    -1.79499   1.04936  -1.59413
H                    -0.82895   2.02197  -0.46249
H                    -2.2748    1.15451   0.11797
H                    -2.10154  -1.43643   0.20295
H                    -0.55146  -2.13999  -0.32818
H                    -1.63412  -1.37872  -1.51482
H                    -0.55129   0.02081   1.77647

