%nproc=32
%mem=180GB
#P CBS-4M**

Frag_122

0 1
C                     0.9581   -0.2107   -0.4944
C                     0.0145    0.4345    0.4672
N                    -1.325    -0.042     0.588
O                     0.41      1.3829    1.1959
H                     1.2532   -1.2089   -0.1093
H                     1.8685    0.4123   -0.624
H                     0.4643   -0.3309   -1.4814
H                    -1.6606   -0.8382    0.0017
H                    -1.9831    0.4009    1.267

