%nproc=32
%mem=180GB
#P OPT=calcfc Freq B3LYP**

Frag_380

0 1
C                    -1.1586   -0.2034    0.6462
N                    -0.6644    0.6412   -0.2084
O                    -1.494     1.5835   -0.7696
O                     0.6729    0.6402   -0.5681
N                     1.5586   -0.31     -0.1018
H                    -2.2097   -0.1666    0.9043
H                    -0.5421   -0.9539    1.1224
H                     2.5061   -0.0249   -0.4359
H                     1.3312   -1.2062   -0.5891

