%nproc=32
%mem=180GB
%chk=CBS-4M.Frag_672.chk
#P CBS-4M

Frag_672

0 1
C                    -1.81988  -0.67773   0.41823
N                    -0.83349   0.39777   0.35169
N                    -1.2641    1.42305  -0.55293
C                     0.53269  -0.02409  -0.03455
C                     1.47607   1.16454   0.22238
C                     0.9757   -1.21501   0.82476
N                     0.53498  -0.45384  -1.44987
H                    -1.56215  -1.39632   1.19941
H                    -2.78642  -0.23833   0.6832
H                    -1.92588  -1.21722  -0.53778
H                    -1.94215   1.99574  -0.05944
H                    -1.75299   0.99922  -1.34591
H                     2.49417   0.90973  -0.08994
H                     1.49295   1.42534   1.28517
H                     1.13986   2.03849  -0.33798
H                     0.7848   -1.01623   1.88242
H                     2.05109  -1.37625   0.70066
H                     0.46316  -2.13528   0.53533
H                     0.55936   0.37168  -2.04209
H                     1.38255  -0.97526  -1.65266

