%nproc=32
%mem=180GB
%chk=CBS-4M.Frag_1160.chk
#P CBS-4M

Frag_1160

0 1
C                    -0.64023   1.21768  -0.73164
C                    -0.27195   0.2159    0.07277
C                    -1.17709  -0.91526   0.47593
N                     1.00379   0.19267   0.71107
O                     1.90674   1.09266   0.15776
O                     1.56504  -1.10297   0.69272
H                    -1.64323   1.24129  -1.13858
H                     0.00286   2.05923  -0.94733
H                    -1.21149  -1.00177   1.56627
H                    -0.82614  -1.87816   0.09438
H                    -2.18692  -0.73734   0.10225
H                     1.85334   0.98828  -0.81313
H                     1.62527  -1.37201  -0.24255

