%nproc=32
%mem=180GB
#P OPT=calcfc Freq B3LYP**

Frag_351

0 1
C                     1.9911    0.1503    0.4087
C                     0.8671   -0.4672    0.0509
N                    -0.4053    0.1977    0.0777
C                    -1.6089   -0.5316   -0.3041
O                    -0.5092    1.4891    0.4812
H                     2.9327   -0.3821    0.3762
H                     1.99      1.1818    0.7354
H                     0.9207   -1.5013   -0.2685
H                    -1.7421   -1.4114    0.3602
H                    -2.5011    0.1237   -0.213
H                    -1.5224   -0.8736   -1.3569
H                    -0.4126    2.0246   -0.3478

