%nproc=32
%mem=180GB
%chk=CBS-4M.Frag_806.chk
#P CBS-4M

Frag_806

0 1
C                    -0.7633    0.07504  -1.07838
C                    -0.75672   0.13287   0.25934
O                    -1.8414    0.34143   1.04254
O                     0.29706  -0.00006   1.08152
C                     1.55838  -0.22899   0.47957
H                    -1.68989   0.19979  -1.62289
H                     0.13354  -0.09415  -1.65199
H                    -2.60939   0.43952   0.47079
H                     1.55678  -1.15975  -0.10033
H                     1.8396    0.60242  -0.1779
H                     2.27526  -0.30803   1.29773

