%nproc=32
%mem=180GB
#P OPT=calcfc Freq B3LYP**

Frag_294

0 1
C                     2.0982    0.0583    0.3312
C                     1.        0.762     0.0276
C                    -0.3846    0.1359   -0.0867
C                    -0.7945   -0.5023    1.254
C                    -0.3963   -0.9363   -1.1926
N                    -1.3693    1.1705   -0.4305
H                     3.0591    0.5578    0.399
H                     2.0544   -1.0101    0.5136
H                     1.1121    1.8294   -0.1435
H                    -1.835    -0.8883    1.1938
H                    -0.126    -1.3492    1.5182
H                    -0.7489    0.2495    2.0713
H                    -0.0603   -0.5009   -2.1584
H                    -1.4242   -1.336    -1.3297
H                     0.2738   -1.7849   -0.9381
H                    -1.3624    1.9174    0.3031
H                    -1.0962    1.6272   -1.3322

