%nproc=32
%mem=180GB
%chk=CBS-4M.Frag_575.chk
#P CBS-4M

Frag_575

0 1
C                    -1.46999  -0.54428   0.6782
C                    -0.44932   0.28657  -0.05485
N                    -0.80506   1.29516  -0.738
C                     0.99137  -0.17378   0.09106
O                     1.83145   0.6833   -0.65133
H                    -1.26334  -0.56156   1.7552
H                    -1.45024  -1.58546   0.33417
H                    -2.46598  -0.13238   0.51243
H                     0.02352   1.72723  -1.15762
H                     1.25188  -0.17759   1.16297
H                     1.06363  -1.21931  -0.25359
H                     2.74219   0.40208  -0.53114

