%nproc=32
%mem=180GB
%chk=CBS-4M.Frag_790.chk
#P CBS-4M

Frag_790

0 1
C                    -0.98936  -0.58866  -1.12358
C                    -0.08048   0.05958  -0.05617
C                     0.31517   1.47832  -0.52109
C                    -0.80429   0.12278   1.29398
C                     1.1868   -0.76618   0.03391
N                     1.58016  -1.32521   1.10229
H                    -1.29907  -1.59376  -0.8204
H                    -1.89119   0.01465  -1.27154
H                    -0.47961  -0.66819  -2.09036
H                    -0.57895   2.0937   -0.66635
H                     0.85935   1.45216  -1.47191
H                     0.95131   1.97319   0.21953
H                    -1.07851  -0.87707   1.63974
H                    -0.16591   0.56762   2.06145
H                    -1.7158    0.72375   1.2077
H                     1.73608  -0.83513  -0.91993
H                     2.45441  -1.83165   0.94761

