%nproc=32
%mem=180GB
%chk=CBS-4M.Frag_1084.chk
#P CBS-4M

Frag_1084

0 1
C                    -1.56801  -0.79682   0.22678
C                    -0.49692   0.21547  -0.17967
C                    -0.30154   1.31577   0.872
N                     0.74046  -0.519    -0.53427
N                     1.34111  -1.05952   0.61448
O                     1.6394    0.47837  -1.11086
H                    -2.52524  -0.28886   0.38042
H                    -1.2889   -1.30282   1.15435
H                    -1.69775  -1.55539  -0.5501
H                    -0.79462   0.68708  -1.12147
H                     0.5059    1.99265   0.58136
H                    -0.07648   0.89302   1.85647
H                    -1.21903   1.90394   0.97019
H                     2.04747  -1.71823   0.30249
H                     1.82269  -0.32664   1.13942
H                     1.87154   0.08109  -1.95739

