%nproc=32
%mem=180GB
%chk=CBS-4M.Frag_1135.chk
#P CBS-4M

Frag_1135

0 1
N                    -1.04873   0.11684   0.32909
N                     0.08714   0.91928  -0.04812
N                     1.07015   0.13742  -0.34775
O                     0.90444  -1.23506  -0.2691
O                     2.15707   0.52078  -0.70119
H                    -1.31463   0.41933   1.26446
H                    -1.81053   0.39138  -0.28849
H                    -0.04492  -1.26998   0.0341

