%nproc=32
%mem=180GB
%chk=CBS-4M.Frag_561.chk
#P CBS-4M

Frag_561

0 1
C                     1.60553   1.12174   1.18734
C                     0.92724   0.61226   0.1602
O                     1.38248   0.82111  -1.11587
C                    -0.34128  -0.20118   0.29782
C                    -1.53872   0.49384  -0.37877
C                    -0.15759  -1.63558  -0.23458
H                     2.50941   1.69744   1.03154
H                     1.26243   0.96787   2.20109
H                     0.79024   0.39454  -1.74168
H                    -0.55206  -0.26528   1.37018
H                    -1.39964   0.58797  -1.46276
H                    -2.45545  -0.08291  -0.22157
H                    -1.68818   1.4992    0.02428
H                     0.67137  -2.13872   0.27061
H                     0.05186  -1.64996  -1.31123
H                    -1.06777  -2.22242  -0.07669

