%nproc=32
%mem=180GB
%chk=CBS-4M.Frag_668.chk
#P CBS-4M

Frag_668

0 1
C                    -1.18859  -0.84859  -0.49216
N                    -0.05959   0.05491  -0.34802
C                     1.21431  -0.65192  -0.32516
C                    -0.20319   0.96622   0.77008
O                     0.7069    2.03679   0.678
H                    -1.28511  -1.57058   0.34084
H                    -1.08092  -1.42459  -1.41682
H                    -2.12021  -0.2771   -0.55483
H                     1.36821  -1.17352  -1.27503
H                     2.02069   0.07093  -0.18757
H                     1.27436  -1.39804   0.48972
H                    -1.24785   1.31416   0.78002
H                     0.00762   0.49369   1.74632
H                     0.59336   2.40763  -0.20539

