%nproc=32
%mem=180GB
%chk=CBS-4M.Frag_531.chk
#P CBS-4M

Frag_531

0 1
C                    -0.83128   0.07294  -0.09674
N                     0.39062  -0.69893  -0.38019
N                     1.43515  -0.2316    0.06903
N                     2.46266   0.09451   0.429
H                    -1.01839   0.1534    0.9804
H                    -0.78337   1.07949  -0.52836
H                    -1.65549  -0.46981  -0.55825

