%nproc=32
%mem=180GB
%chk=CBS-4M.Frag_733.chk
#P CBS-4M

Frag_733

0 1
C                     1.73425  -0.51484  -0.70164
C                     0.72901  -0.25035   0.43123
C                     1.09645   1.0469    1.16573
C                    -0.76635  -0.29914  -0.02731
C                    -1.13766   0.86156  -0.96928
N                    -1.71001  -0.26083   1.09753
N                    -0.99718  -1.61941  -0.63652
H                     1.57327  -1.49045  -1.16803
H                     1.68409   0.25494  -1.48024
H                     2.75697  -0.50894  -0.30988
H                     0.82085  -1.08166   1.14309
H                     2.09436   0.9629    1.60797
H                     1.11451   1.90685   0.48747
H                     0.39987   1.27299   1.97916
H                    -1.01475   1.84032  -0.49297
H                    -2.18586   0.76354  -1.26482
H                    -0.5208    0.85134  -1.87265
H                    -1.45735  -0.98393   1.76654
H                    -1.6551    0.6293    1.58079
H                    -1.99858  -1.71437  -0.78491
H                    -0.55999  -1.66682  -1.55137

