%nproc=32
%mem=180GB
#P OPT=calcfc Freq B3LYP**

Frag_417

0 1
C                     2.0095    0.0983    0.2195
C                     0.8126   -0.2971   -0.6653
O                     0.9289   -1.6385   -1.0766
C                    -0.5778   -0.0353   -0.0037
C                    -0.7951    1.4812    0.2078
N                    -1.6292   -0.56     -0.8889
N                    -0.6534   -0.7158    1.2976
H                     1.9701   -0.4201    1.2006
H                     2.9559   -0.185    -0.2882
H                     2.0324    1.1949    0.3857
H                     0.8769    0.3236   -1.5862
H                     1.0691   -2.1973   -0.2687
H                    -0.6358    2.0392   -0.7397
H                    -0.1035    1.8777    0.9801
H                    -1.8317    1.6795    0.555
H                    -1.6191   -0.0321   -1.7926
H                    -2.5664   -0.401    -0.4514
H                    -0.691    -1.7498    1.1459
H                    -1.5527   -0.4624    1.7691

