%nproc=32
%mem=180GB
%chk=CBS-4M.Frag_471.chk
#P CBS-4M

Frag_471

0 1
C                    -1.78792  -0.01083   0.27852
C                    -0.56952   0.01639  -0.64263
O                    -0.32834   1.32512  -1.14303
C                     0.68708  -0.54326   0.05993
N                     1.29787   0.50606   0.85286
O                     1.52303  -1.06912  -0.96581
H                    -2.06073  -1.03621   0.54924
H                    -2.64243   0.45525  -0.21889
H                    -1.57714   0.53836   1.20347
H                    -0.74803  -0.60317  -1.52617
H                    -0.26492   1.90089  -0.37136
H                     0.38669  -1.34418   0.75205
H                     1.77812   1.14239   0.22258
H                     1.9839    0.13279   1.49999
H                     2.32224  -1.41048  -0.55101

