%nproc=32
%mem=180GB
#P CBS-4M**

Frag_197

0 1
N                     1.5865    0.1577   -0.1302
C                     0.3056    0.1601    0.5808
C                    -0.7721   -0.7299   -0.0211
C                    -0.8397    0.7815   -0.2028
H                     1.464    -0.0559   -1.1473
H                     2.1598   -0.6174    0.2729
H                     0.3035    0.3171    1.6805
H                    -0.4947   -1.2863   -0.9416
H                    -1.5015   -1.127     0.716
H                    -1.6115    1.275     0.4247
H                    -0.5999    1.125    -1.2319

