%nproc=32
%mem=180GB
%chk=CBS-4M.Frag_502.chk
#P CBS-4M

Frag_502

0 1
C                     1.84511  -0.16808   0.65752
N                     0.72424  -0.33398  -0.25017
C                     0.71388   0.65931  -1.31935
N                    -0.49598  -0.47324   0.47818
C                    -1.4182   -1.34174  -0.23104
C                    -1.11863   0.77234   0.91492
H                     1.85817   0.80628   1.1814
H                     1.81487  -0.96142   1.4067
H                     2.77855  -0.24706   0.09
H                     0.68949   1.70471  -0.96427
H                     1.61847   0.53307  -1.92242
H                    -0.14776   0.49661  -1.97281
H                    -0.90211  -2.26675  -0.49481
H                    -1.83239  -0.89737  -1.15568
H                    -2.26261  -1.57764   0.42543
H                    -1.92002   0.53358   1.62109
H                    -1.55842   1.36867   0.09608
H                    -0.38645   1.39291   1.43904

