%nproc=32
%mem=180GB
#P CBS-4M**

Frag_196

0 1
C                     1.4752   -0.4652   -0.0296
C                     0.0796    0.1517    0.0403
N                    -0.0275    1.5416    0.4666
O                     0.1429    2.4598   -0.361
O                    -0.0735    1.841     1.808
C                    -1.0727   -0.7389    0.4742
C                    -0.955    -0.2905   -0.9814
H                     1.4374   -1.5244   -0.3632
H                     1.9474   -0.424     0.974
H                     2.0979    0.1115   -0.7448
H                    -1.8905   -0.2321    1.0298
H                    -0.8234   -1.8099    0.6321
H                    -0.6351   -1.0986   -1.6732
H                    -1.7028    0.4782   -1.2718

