%nproc=32
%mem=180GB
%chk=CBS-4M.Frag_789.chk
#P CBS-4M

Frag_789

0 1
C                    -0.93613  -1.076    -0.67243
C                    -0.14519  -0.11815   0.23866
C                    -0.92396   1.19328   0.45562
O                     0.07277  -0.73997   1.48675
C                     1.18448   0.20068  -0.41624
N                     2.26235  -0.10015   0.17846
H                    -1.13742  -0.63181  -1.65311
H                    -1.89204  -1.31446  -0.19792
H                    -0.38161  -2.00777  -0.81332
H                    -0.36106   1.8631    1.1114
H                    -1.12436   1.70894  -0.48964
H                    -1.88006   0.96723   0.93576
H                     1.03769  -0.79382   1.58675
H                     1.13148   0.68901  -1.39817
H                     3.09307   0.15979  -0.35259

