%nproc=32
%mem=180GB
%chk=CBS-4M.Frag_598.chk
#P CBS-4M

Frag_598

0 1
C                    -1.25196  -0.39697   0.11549
N                    -0.05687  -0.61347  -0.68605
C                     0.99538   0.02294  -0.42949
O                     1.14127   0.94227   0.56933
H                    -1.11545   0.26899   0.97471
H                    -2.03781   0.0166   -0.52679
H                    -1.61459  -1.36681   0.47279
H                     1.89181  -0.14245  -1.0313
H                     2.04522   1.27201   0.5664

