%nproc=32
%mem=180GB
#P OPT=calcfc Freq B3LYP**

Frag_326

0 1
C                     2.1094   -0.4585   -0.1959
N                     0.9002   -0.9074   -0.3395
N                    -0.2666   -0.1672   -0.0562
C                    -1.5515   -0.8276   -0.2747
C                    -0.2105    1.2135    0.4394
H                     2.3123    0.5417    0.1607
H                     2.946    -1.099    -0.4386
H                    -1.6382   -1.1248   -1.3408
H                    -2.4059   -0.1645   -0.0237
H                    -1.6131   -1.7364    0.3599
H                     0.3344    1.2423    1.4062
H                     0.3092    1.8564   -0.3015
H                    -1.2256    1.6316    0.6047

