%nproc=32
%mem=180GB
#P CBS-4M**

Frag_111

0 1
C                    -1.3699   -0.4785    0.084
C                     0.0013    0.0282   -0.3702
C                     1.1319   -0.8968    0.1094
N                     0.1521    1.4298    0.0534
H                    -1.4297   -0.5031    1.1798
H                    -1.5582   -1.4935   -0.2799
H                    -2.1616    0.1803   -0.282
H                     0.0123    0.0376   -1.4691
H                     2.1087   -0.5328   -0.2293
H                     1.1538   -0.9449    1.2055
H                     1.0079   -1.9188   -0.2671
H                     1.0617    1.7796   -0.2431
H                     0.1607    1.4698    1.0726

