%nproc=32
%mem=180GB
%chk=CBS-4M.Frag_1032.chk
#P CBS-4M

Frag_1032

0 1
N                     1.8127   -0.94864  -0.67236
N                     0.63763  -1.18685  -0.38316
N                    -0.10188  -0.20116   0.31556
N                    -1.48367  -0.29626  -0.01281
N                     0.41475   1.10569   0.20777
H                     2.04988   0.02476  -0.38403
H                    -1.94119  -0.79345   0.74695
H                    -1.5647   -0.88807  -0.83849
H                     0.31058   1.56083   1.10779
H                    -0.13412   1.62305  -0.4771

