%nproc=32
%mem=180GB
%chk=CBS-4M.Frag_775.chk
#P CBS-4M

Frag_775

0 1
C                    -1.18158  -1.29891  -0.03555
C                    -0.56508  -0.1148   -0.20108
N                    -1.21157   1.11573  -0.18791
N                     0.84208  -0.02226  -0.4008
N                     1.39663   1.15994   0.12205
O                     1.51148  -1.17673   0.06901
H                    -2.25599  -1.33041   0.08937
H                    -0.65033  -2.23155  -0.13176
H                    -2.12447   1.10645  -0.61599
H                    -0.62702   1.88196  -0.48623
H                     2.33316   1.23381  -0.26016
H                     1.47725   1.09854   1.1412
H                     1.05533  -1.42187   0.89783

