%nproc=32
%mem=180GB
%chk=CBS-4M.Frag_1037.chk
#P CBS-4M

Frag_1037

0 1
C                    -1.60174  -0.89632   0.06763
C                    -0.29399  -0.1208   -0.08748
C                    -0.43255   1.29463   0.51811
O                    -0.0604    0.16977  -1.52663
N                     0.73918  -0.94764   0.43888
N                     1.97793  -0.2391    0.12054
H                    -2.4211   -0.37064  -0.42974
H                    -1.84826  -1.02374   1.12525
H                    -1.49353  -1.89346  -0.37009
H                    -0.60735   1.21642   1.59445
H                     0.46839   1.89933   0.35776
H                    -1.26011   1.8451    0.06149
H                    -0.03006  -0.7034   -1.93842
H                     1.89688   0.15125  -0.83656
H                     2.73304  -0.91965   0.15167
H                     2.23366   0.53835   0.75313

