%nproc=32
%mem=180GB
#P OPT=calcfc Freq B3LYP**

Frag_356

0 1
C                    -1.8038   -0.5067    0.123
O                    -0.4305   -0.8119   -0.094
C                     0.583     0.1513   -0.042
N                     0.3036    1.3917    0.2124
N                     1.9343   -0.2477   -0.2731
H                    -2.155     0.2263   -0.6339
H                    -2.4029   -1.4355    0.0281
H                    -1.9447   -0.0908    1.1431
H                     1.0468    2.1243    0.2552
H                     2.1553   -1.2472   -0.4776
H                     2.714     0.4463   -0.2415

