%nproc=32
%mem=180GB
%chk=CBS-4M.Frag_1094.chk
#P CBS-4M

Frag_1094

0 1
C                    -1.50105  -0.21086  -0.04422
N                    -0.60606   0.01162  -1.17583
N                     0.76158   0.24032  -0.94395
C                     1.33361  -0.40952   0.23082
O                     1.00025   1.63768  -0.82636
H                    -1.27214  -1.09164   0.57571
H                    -1.51443   0.66951   0.60792
H                    -2.51268  -0.32789  -0.44269
H                    -0.6844   -0.7095   -1.87998
H                     0.903    -0.06035   1.18487
H                     2.40477  -0.20212   0.23903
H                     1.17997  -1.48978   0.15058
H                     0.50747   1.94235  -0.0447

