%nproc=32
%mem=180GB
%chk=CBS-4M.Frag_482.chk
#P CBS-4M

Frag_482

0 1
C                     0.43628  -1.32117  -0.63393
C                     0.40963  -0.17133   0.38319
C                     1.46306   0.89375   0.05373
C                    -0.98458   0.46389   0.49886
O                    -1.32108   0.99999  -0.76205
O                    -1.97563  -0.42862   0.9533
H                     1.43768  -1.75827  -0.69046
H                     0.16093  -0.96655  -1.63094
H                    -0.24769  -2.13138  -0.35573
H                     0.6234   -0.58188   1.37798
H                     2.46799   0.46003   0.05455
H                     1.27681   1.32966  -0.93166
H                     1.44995   1.70683   0.78792
H                    -0.96504   1.25206   1.26613
H                    -2.19613   1.39362  -0.67667
H                    -2.03559  -1.14084   0.30557

