%nproc=32
%mem=180GB
#P OPT=calcfc Freq B3LYP**

Frag_408

0 1
C                     1.8359    0.1983    0.4392
C                     0.4955   -0.4591    0.3287
C                    -0.5733    0.14     -0.2199
C                    -1.8767   -0.5928   -0.289
O                    -0.5142    1.438    -0.7354
H                     2.5525   -0.4953    0.9267
H                     1.7602    1.1184    1.0562
H                     2.2215    0.4513   -0.571
H                     0.3982   -1.4677    0.7147
H                    -1.7588   -1.5207   -0.8879
H                    -2.6492    0.0441   -0.7691
H                    -2.2188   -0.8554    0.7345
H                     0.3273    2.0008   -0.7276

