%nproc=32
%mem=180GB
%chk=CBS-4M.Frag_526.chk
#P CBS-4M

Frag_526

0 1
C                     2.0391   -0.07289   0.30555
C                     0.59696  -0.02088   0.08008
C                    -0.59697   0.02207  -0.10656
C                    -2.0391    0.07389  -0.33221
H                     2.57919   0.4842   -0.43198
H                     2.3       0.31212   1.3628
H                     2.42012  -1.05616   0.17061
H                    -2.58961  -0.44043   0.47531
H                    -2.39054   1.15517  -0.47072
H                    -2.31915  -0.45059  -1.18768

