%nproc=32
%mem=180GB
#P CBS-4M**

Frag_10

0 1
C                     1.171     0.7403    0.
C                     1.2092   -0.6534    0.
C                     0.       -1.3515    0.
N                    -1.2006   -0.759     0.
C                    -1.2208    0.5797    0.
C                    -0.0716    1.3726    0.
H                     2.0891    1.3207    0.
H                     2.1522   -1.1915    0.
H                    -0.0044   -2.4402    0.
H                    -2.2062    1.0427    0.
H                    -0.1531    2.4552    0.

