%nproc=32
%mem=180GB
#P OPT=calcfc Freq B3LYP**

Frag_416

0 1
C                     1.6876    0.1228    0.9197
C                     0.7049    0.6343   -0.1533
N                     1.2957    0.4929   -1.4895
C                    -0.7221   -0.0225   -0.0977
C                    -0.6707   -1.5522   -0.3076
C                    -1.3967    0.2587    1.2619
N                    -1.5782    0.5579   -1.1438
H                     2.6564    0.657     0.8209
H                     1.8849   -0.9626    0.8049
H                     1.3055    0.3239    1.9408
H                     0.5723    1.7238    0.038
H                     1.6844   -0.4711   -1.6053
H                     2.1009    1.1559   -1.571
H                    -0.1149   -2.0569    0.5095
H                    -0.1955   -1.8091   -1.2768
H                    -1.7011   -1.9688   -0.3206
H                    -0.8973   -0.2913    2.0869
H                    -1.3762    1.3453    1.4929
H                    -2.4593   -0.067     1.2378
H                    -1.5836    1.6009   -1.0567
H                    -1.1971    0.3282   -2.0906

