%nproc=32
%mem=180GB
#P OPT=calcfc Freq B3LYP**

Frag_322

0 1
C                     1.6249   -0.4274   -0.5309
N                     0.7174    0.4933   -0.6292
C                    -0.5514    0.4886    0.045
N                    -1.26      1.5708    0.0614
N                    -1.0702   -0.6909    0.6696
H                     1.5092   -1.2838    0.1176
H                     2.5457   -0.3262   -1.0885
H                    -0.9225    2.4484   -0.3936
H                    -1.9707   -0.6478    1.1969
H                    -0.6224   -1.6249    0.5517

