%nproc=32
%mem=180GB
%chk=CBS-4M.Frag_461.chk
#P CBS-4M

Frag_461

0 1
C                    -1.5733   -0.1205    0.18828
C                    -0.16764   0.20304  -0.24746
O                     0.14316   0.98959  -1.10896
O                     0.72676  -0.53714   0.44419
N                     2.09308  -0.37134   0.00062
H                    -2.14305   0.80714   0.26789
H                    -2.0466   -0.7385   -0.58109
H                    -1.58749  -0.66149   1.13459
H                     2.53391   0.06021   0.81376
H                     2.02107   0.3689   -0.70672

