%nproc=32
%mem=180GB
#P OPT=calcfc Freq B3LYP**

Frag_203

0 1
C                     1.6777    0.0299   -0.3026
N                     0.453    -0.7042   -0.6002
C                    -0.8381   -0.2886   -0.1233
C                    -0.9932    0.9425    0.7191
N                    -1.8905   -0.983    -0.4212
H                     2.5452   -0.4778   -0.7748
H                     1.8412    0.0649    0.7948
H                     1.608     1.0619   -0.7053
H                     0.5268   -1.5673   -1.1852
H                    -0.4031    0.8351    1.6528
H                    -0.6357    1.8297    0.1563
H                    -2.0581    1.1044    0.9922
H                    -1.833    -1.8474   -1.0046

