%nproc=32
%mem=180GB
#P CBS-4M**

Frag_63

0 1
C                    -1.4293   -0.0516   -0.1071
C                     0.0302    0.0003    0.3622
N                     0.666     1.1931   -0.1947
N                     0.8556   -1.1306   -0.0626
H                    -1.4698   -0.0484   -1.2014
H                    -1.9217   -0.9568    0.2636
H                    -2.0027    0.8099    0.2569
H                     0.0348   -0.0225    1.468
H                     1.6236    1.2404    0.1453
H                     0.186     2.0315    0.1225
H                     0.8281   -1.1844   -1.0802
H                     0.4657   -1.9992    0.2964

