%nproc=32
%mem=180GB
#P CBS-4M**

Frag_186

0 1
N                    -0.2596    1.261    -0.4173
N                     0.0893   -0.0938   -0.6232
N                    -0.7045   -0.9316    0.1984
N                     1.4454   -0.2557   -0.269
H                    -1.2461    1.3953   -0.7374
H                    -0.2104    1.4991    0.6016
H                    -0.7168   -0.5766    1.1836
H                    -1.6838   -0.9052   -0.1671
H                     1.7306   -1.225    -0.5389
H                     1.556    -0.1676    0.7692

