%nproc=32
%mem=180GB
%chk=CBS-4M.Frag_617.chk
#P CBS-4M

Frag_617

0 1
C                     0.93017  -1.25727  -0.63118
C                     0.45799  -0.17026  -0.02899
C                     1.32279   0.85911   0.64523
C                    -1.03352   0.10818   0.03557
O                    -1.26321   1.32266  -0.61959
O                    -1.84109  -0.87163  -0.58689
H                     1.99403  -1.46824  -0.66607
H                     0.26731  -1.95848  -1.12386
H                     2.37842   0.57981   0.60742
H                     1.03977   0.98812   1.69815
H                     1.19881   1.83597   0.16635
H                    -1.32809   0.18712   1.10242
H                    -2.21553   1.47176  -0.61042
H                    -1.90785  -1.62685   0.00695

