%nproc=32
%mem=180GB
%chk=CBS-4M.Frag_879.chk
#P CBS-4M

Frag_879

0 1
N                     2.1858    0.24416  -0.54802
C                     0.96621  -0.07835  -0.32193
N                    -0.11627   0.73444  -0.17383
N                    -1.28586  -0.09072   0.06867
H                     2.26381   1.26285  -0.61005
H                     0.76816  -1.1727   -0.23535
H                    -1.06381  -1.10238   0.07878
H                    -1.71807   0.14046   0.97003
H                    -1.99988   0.06235  -0.65209

