%nproc=32
%mem=180GB
#P OPT=calcfc Freq B3LYP**

Frag_323

0 1
C                     1.7417   -0.3162   -0.2995
C                     0.4372    0.3846   -0.0228
N                     0.4759    1.8047    0.1885
C                    -0.7265   -0.3081    0.0628
N                    -1.9837    0.3676    0.207
N                    -0.7448   -1.742    -0.0125
H                     1.6655   -0.9162   -1.2311
H                     2.0066   -0.9749    0.5543
H                     2.5656    0.4148   -0.4368
H                    -0.2896    2.3208    0.6733
H                     1.346     2.3446   -0.0154
H                    -2.8474   -0.1839    0.4063
H                    -2.111     1.377    -0.0216
H                    -1.656    -2.251     0.0154
H                     0.1205   -2.3219   -0.068

