%nproc=32
%mem=180GB
#P CBS-4M**

Frag_68

0 1
C                     0.841    -0.6837    0.1253
C                    -0.6837   -0.841    -0.1253
C                    -0.841     0.6837    0.1253
C                     0.6837    0.841    -0.1253
H                     1.5258   -1.2403   -0.5214
H                     1.1018   -0.8953    1.1675
H                    -0.8953   -1.1018   -1.1675
H                    -1.2403   -1.5258    0.5214
H                    -1.1018    0.8953    1.1675
H                    -1.5258    1.2403   -0.5214
H                     0.8953    1.1018   -1.1675
H                     1.2403    1.5258    0.5214

