%nproc=32
%mem=180GB
#P CBS-4M**

Frag_35

0 1
C                     1.5431   -0.509     0.12
C                     0.6277    0.6444   -0.2981
C                    -0.7771    0.5446    0.3011
O                    -1.4546   -0.657    -0.0548
H                     1.0917   -1.4702   -0.1405
H                     1.7082   -0.5048    1.2034
H                     2.5204   -0.4426   -0.368
H                     0.5441    0.677    -1.3946
H                     1.0642    1.6072   -0.0004
H                    -1.3689    1.4306    0.0203
H                    -0.7173    0.5301    1.3952
H                    -1.5679   -0.6517   -1.0147

