%nproc=32
%mem=180GB
%chk=CBS-4M.Frag_773.chk
#P CBS-4M

Frag_773

0 1
C                     2.23579  -0.10312  -0.52651
C                     1.11062  -0.34986  -0.1828
C                    -0.26251  -0.62015   0.22794
C                    -1.17384   0.61674   0.12849
H                     3.23271   0.10345  -0.82726
H                    -0.26426  -0.99672   1.25865
H                    -0.67202  -1.42967  -0.38944
H                    -2.19053   0.36669   0.44551
H                    -1.21369   0.98782  -0.89907
H                    -0.80239   1.42462   0.7645

