%nproc=32
%mem=180GB
#P OPT=calcfc Freq B3LYP**

Frag_391

0 1
C                     1.7224    0.1617    0.2549
N                     0.4548    0.375     0.4071
N                    -0.5048   -0.3162   -0.3496
N                    -1.8693   -0.0603   -0.1588
H                     2.4343    0.712     0.8546
H                     2.084    -0.5613   -0.4658
H                    -0.2169   -1.0262   -1.0607
H                    -2.0828   -0.2443    0.8477
H                    -2.0217    0.9596   -0.3295

