%nproc=32
%mem=180GB
#P CBS-4M**

Frag_253

0 1
C                     1.0318   -0.1754    0.2664
N                     0.6285    1.0914    0.4862
N                    -0.669     1.0891    0.2281
N                    -1.034    -0.1282   -0.1325
N                     0.001    -0.9494   -0.1214
H                     2.0487   -0.5239    0.3857
H                    -2.007    -0.4036   -0.3907

