%nproc=32
%mem=180GB
#P OPT=calcfc Freq B3LYP**

Frag_309

0 1
C                     0.5664    0.2365   -1.7102
C                    -0.1784    0.0422   -0.6163
C                    -1.6504   -0.2351   -0.7729
C                     0.4566    0.0182    0.7294
C                     0.0097   -0.8072    1.6817
N                     1.5573    0.8899    1.0208
H                     0.1193    0.2266   -2.6967
H                     1.637     0.3828   -1.6469
H                    -1.8116   -1.3253   -0.9067
H                    -2.067     0.3028   -1.6518
H                    -2.2066    0.1086    0.1247
H                     0.469    -0.8194    2.662
H                    -0.807    -1.4938    1.499
H                     1.8585    1.6229    0.3412
H                     2.0474    0.8504    1.9427

