%nproc=32
%mem=180GB
%chk=CBS-4M.Frag_817.chk
#P CBS-4M

Frag_817

0 1
N                     1.94024  -0.56742  -0.51921
N                     0.76977  -0.88122  -0.29293
C                    -0.10104   0.29602   0.06292
N                    -1.3495   -0.13712   0.29039
O                     0.31929   1.42667   0.11939
H                     2.04635   0.47339  -0.40453
H                    -1.54754  -1.1196    0.20154
H                    -2.07756   0.50928   0.54233

