%nproc=32
%mem=180GB
#P OPT=calcfc Freq B3LYP**

Frag_352

0 1
C                    -0.51     -1.3825    0.05
C                    -0.5861    0.1137    0.2241
N                    -1.8632    0.7005    0.5148
N                     0.479     0.8712    0.1155
C                     1.8081    0.3313   -0.1794
O                     0.3697    2.2346    0.2813
H                    -0.1447   -1.6294   -0.9686
H                     0.1721   -1.8201    0.8083
H                    -1.509    -1.8489    0.1781
H                    -2.7155    0.1039    0.6027
H                    -1.9808    1.7293    0.6462
H                     2.5531    1.154    -0.224
H                     1.8047   -0.1833   -1.1635
H                     2.1224   -0.3745    0.6184

