%nproc=32
%mem=180GB
%chk=CBS-4M.Frag_585.chk
#P CBS-4M

Frag_585

0 1
C                    -0.73292   0.97725  -0.19352
C                    -0.04901  -0.39221  -0.32656
O                    -0.97448  -1.44811  -0.39893
C                     0.8324   -0.64592   0.90523
O                     0.52109  -1.31546   1.84276
O                     2.02303   0.01151   0.88361
H                    -1.3449    1.18198  -1.07869
H                    -0.00341   1.78749  -0.09813
H                    -1.37753   0.98157   0.68949
H                     0.60581  -0.38418  -1.21759
H                    -1.64787  -1.20996  -1.044
H                     2.14769   0.45604   0.03624

