%nproc=32
%mem=180GB
%chk=CBS-4M.Frag_1026.chk
#P CBS-4M

Frag_1026

0 1
C                    -1.00213  -1.29523   0.59719
C                    -0.60442  -0.21338  -0.41643
C                    -1.64634   0.91293  -0.45563
C                     0.83013   0.33606  -0.1891
N                     0.91792   1.00003   1.10467
N                     1.90344  -0.6631   -0.32053
O                     1.05179   1.26934  -1.22421
H                    -1.13327  -0.88108   1.60399
H                    -0.26781  -2.10576   0.65187
H                    -1.95995  -1.74227   0.31398
H                    -0.56584  -0.67815  -1.4105
H                    -1.69738   1.42461   0.5096
H                    -2.6383    0.5095   -0.68598
H                    -1.38742   1.65378  -1.21361
H                     0.64112   0.36785   1.84976
H                     1.88825   1.24926   1.27923
H                     1.77244  -1.20619  -1.17126
H                     1.88894  -1.31434   0.4577
H                     2.00884   1.37574  -1.28075

