%nproc=32
%mem=180GB
%chk=CBS-4M.Frag_923.chk
#P CBS-4M

Frag_923

0 1
C                    -0.25084  -1.45045  -0.60124
C                    -0.12723  -0.03916  -0.01167
C                    -0.89534   0.0778    1.31167
C                    -0.57366   1.02477  -1.01206
N                     1.35307   0.13999   0.34401
N                     1.97178   1.09491  -0.21004
O                     1.82571  -0.67622   1.15519
H                    -1.30285  -1.66346  -0.80931
H                     0.13141  -2.19291   0.10041
H                     0.30608  -1.53218  -1.53948
H                    -0.52126  -0.64652   2.03628
H                    -0.79598   1.08241   1.73358
H                    -1.95663  -0.11286   1.13073
H                    -0.00597   0.96499  -1.94214
H                    -0.45513   2.03141  -0.60769
H                    -1.63229   0.86147  -1.23786
H                     2.92903   1.03591   0.15982

