%nproc=32
%mem=180GB
%chk=CBS-4M.Frag_881.chk
#P CBS-4M

Frag_881

0 1
N                    -1.62587   0.24967   0.54154
N                    -0.35372   0.51102   0.06667
N                     0.35388  -0.51095   0.02388
N                     1.62569  -0.24978  -0.45208
H                    -1.88856  -0.72675   0.41557
H                    -2.27521   0.87672   0.08362
H                     1.88843   0.7267   -0.32666
H                     2.27536  -0.87661   0.00567

