%nproc=32
%mem=180GB
%chk=CBS-4M.Frag_597.chk
#P CBS-4M

Frag_597

0 1
C                    -1.2426    0.07001   0.61204
O                    -0.11455  -0.79655   0.75909
C                     1.00885  -0.40218   0.14623
N                     1.10059   0.66482  -0.5288
H                    -2.05291  -0.40269   1.16778
H                    -1.0237    1.06172   1.01767
H                    -1.51073   0.17995  -0.44246
H                     1.79392  -1.14208   0.33113
H                     2.04094   0.76691  -0.90418

