%nproc=32
%mem=180GB
%chk=CBS-4M.Frag_564.chk
#P CBS-4M

Frag_564

0 1
C                    -0.53211   0.87893   0.20832
C                    -0.16177  -0.52061  -0.18492
O                    -1.16882  -1.34136  -0.59194
N                     0.998    -1.04883  -0.18657
O                     1.98454  -0.13709   0.24681
H                    -1.00808   1.39669  -0.63281
H                    -1.24615   0.864     1.0402
H                     0.35148   1.43699   0.51185
H                    -1.9966   -0.85359  -0.554
H                     2.77962  -0.67534   0.18796

