%nproc=32
%mem=180GB
%chk=CBS-4M.Frag_717.chk
#P CBS-4M

Frag_717

0 1
C                     1.72746  -0.61042   0.10156
C                     0.59768  -0.39522  -0.24812
C                    -0.765    -0.07573  -0.6741
O                    -1.35636   0.9776    0.07187
H                     2.72092  -0.81787   0.41461
H                    -0.76342   0.14493  -1.75345
H                    -1.41532  -0.94554  -0.53082
H                    -0.74606   1.72226   0.05476

