%nproc=32
%mem=180GB
#P OPT=calcfc Freq B3LYP**

Frag_303

0 1
C                     2.0232   -0.3658   -0.1512
C                     0.5828   -0.7924   -0.1329
N                     0.3231   -2.0563   -0.2841
N                    -0.4787    0.1815    0.0481
C                    -1.887    -0.2344    0.0661
C                    -0.1476    1.6024    0.216
H                     2.6945   -1.2391   -0.2992
H                     2.2872    0.1148    0.8135
H                     2.1952    0.3485   -0.9828
H                    -0.6378   -2.4613   -0.2876
H                    -2.0578   -0.9485    0.8992
H                    -2.15     -0.7144   -0.9001
H                    -2.5727    0.6261    0.2132
H                    -1.0553    2.2285    0.344
H                     0.4864    1.7383    1.117
H                     0.3944    1.9721   -0.6794

