%nproc=32
%mem=180GB
#P CBS-4M**

Frag_78

0 1
C                     1.1032    0.1428    0.
N                    -0.1918   -0.5452    0.
N                    -1.2272    0.1316    0.
H                     1.6636   -0.1826   -0.8823
H                     0.999     1.2401    0.
H                     1.6636   -0.1825    0.8824
H                    -1.0125    1.1635    0.

