%nproc=32
%mem=180GB
%chk=CBS-4M.Frag_957.chk
#P CBS-4M

Frag_957

0 1
C                     1.57801  -0.2199    0.13942
N                     0.46016  -0.81042   0.12825
C                    -0.74874  -0.00529   0.30117
O                    -1.68389  -0.45093  -0.64356
O                    -0.60318   1.37398   0.16158
H                     2.48739  -0.80698   0.00688
H                     1.68015   0.86097   0.27781
H                    -1.10012  -0.17036   1.33021
H                    -1.38866  -1.32737  -0.91805
H                    -0.68111   1.55629  -0.78382

