%nproc=32
%mem=180GB
%chk=CBS-4M.Frag_462.chk
#P CBS-4M

Frag_462

0 1
C                    -1.4673   -0.06587  -0.49405
O                    -0.70201  -0.14479   0.69393
N                     0.33195   0.84552   0.69194
N                     1.49438   0.02641   0.24321
H                    -1.91839   0.92696  -0.61213
H                    -2.25924  -0.82099  -0.42158
H                    -0.87081  -0.27637  -1.3987
H                     1.61138  -0.81464   0.8271
H                     1.46698  -0.30026  -0.7393
H                     2.31297   0.62404   0.35458

