%nproc=32
%mem=180GB
#P CBS-4M**

Frag_65

0 1
C                     1.3081    1.2772   -0.2555
C                     0.6827    0.0206    0.3639
N                     1.3759   -1.178    -0.097
C                    -0.7972   -0.1321    0.0347
O                    -1.3444   -1.1829   -0.2214
O                    -1.4721    1.0373    0.1173
H                     0.8085    2.1841    0.0915
H                     1.2513    1.2273   -1.3459
H                     2.3648    1.3346    0.0237
H                     0.6958    0.1461    1.4652
H                     2.2362   -1.3074    0.4264
H                     0.7849   -1.9908    0.056
H                    -2.4028    0.8225   -0.0639

