%nproc=32
%mem=180GB
#P CBS-4M**

Frag_281

0 1
C                     0.7354    1.1325    0.2547
N                     1.248    -0.1018    0.8513
C                     0.6238   -1.2167    0.1374
C                    -0.5994   -0.6958   -0.5964
C                    -1.6195    0.0651    0.2379
C                    -0.5281    0.8051   -0.5215
H                     0.5101    1.8696    1.0538
H                     1.4849    1.5706   -0.4419
H                     2.286    -0.1444    0.7185
H                     1.3318   -1.6523   -0.6027
H                     0.3261   -2.0048    0.8605
H                    -0.9045   -1.0881   -1.59
H                    -1.4817    0.0035    1.3394
H                    -2.6228    0.1362   -0.2313
H                    -0.7901    1.3213   -1.4698

