%nproc=32
%mem=180GB
%chk=CBS-4M.Frag_516.chk
#P CBS-4M

Frag_516

0 1
C                     1.60647   0.15292  -0.11072
N                     0.37883   0.48194  -0.04953
N                    -0.37886  -0.48201   0.65998
C                    -1.60649  -0.15298   0.72119
H                     1.99094  -0.76476   0.33928
H                     2.28947   0.81837  -0.63287
H                    -2.28944  -0.81828   1.24359
H                    -1.99092   0.76481   0.27137

