%nproc=32
%mem=180GB
#P CBS-4M**

Frag_25

0 1
N                    -1.4503   -1.066     0.0647
C                    -0.6969    0.0783    0.3851
N                    -1.1451    1.211    -0.3755
N                     0.8468   -0.0562    0.0294
O                     1.2633   -1.1659   -0.2735
O                     1.5212    0.9639    0.1355
H                    -1.4537   -1.2177   -0.9401
H                    -1.0953   -1.8953    0.5278
H                    -0.6434    0.1994    1.4792
H                    -2.1052    1.424    -0.1242
H                    -0.5568    2.0149   -0.1794

