%nproc=32
%mem=180GB
%chk=CBS-4M.Frag_973.chk
#P CBS-4M

Frag_973

0 1
C                     1.09451  -1.31152   0.17296
C                     0.30637  -0.0557   -0.22143
C                     0.71799   1.13328   0.67041
N                     0.52332   0.19043  -1.65568
C                    -1.20695  -0.3355   -0.08559
O                    -1.47704  -0.66234   1.25519
O                    -2.00542   0.75138  -0.5115
H                     0.94074  -1.55826   1.22532
H                     2.166    -1.15216   0.00776
H                     0.78615  -2.16307  -0.44046
H                     1.79621   1.3057    0.58861
H                     0.21936   2.05707   0.35461
H                     0.47916   0.95174   1.72228
H                    -0.06338   0.96705  -1.94875
H                     1.48745   0.47103  -1.81145
H                    -1.472    -1.15182  -0.76978
H                    -2.41041  -0.8933    1.31128
H                    -1.88215   1.45599   0.13644

