%nproc=32
%mem=180GB
#P CBS-4M**

Frag_61

0 1
C                     1.219     1.2322    0.4465
C                     0.6714    0.1007   -0.4157
N                     1.3976   -1.1055   -0.2719
N                    -0.8521   -0.05     -0.0361
O                    -1.1866   -1.0574    0.5785
O                    -1.5952    0.8641   -0.3759
H                     2.2458    1.4449    0.1422
H                     1.2233    0.9414    1.5024
H                     0.6109    2.1304    0.3307
H                     0.6143    0.3984   -1.4654
H                     1.3821   -1.4295    0.6909
H                     1.017    -1.8477   -0.8506

