%nproc=32
%mem=180GB
#P OPT=calcfc Freq B3LYP**

Frag_307

0 1
C                     1.7422   -1.047    -0.0024
N                     0.446    -1.0797   -0.0678
C                    -0.4479    0.0484   -0.0227
C                    -0.0615    1.2591    0.4015
N                    -1.8102   -0.154    -0.4054
H                     2.2953   -0.121     0.0592
H                     2.2982   -1.9735   -0.0428
H                    -0.7674    2.0796    0.4309
H                     0.9402    1.4596    0.751
H                    -2.5064    0.6248   -0.379
H                    -2.1286   -1.0963   -0.7226

