%nproc=32
%mem=180GB
#P CBS-4M**

Frag_18

0 1
C                     0.        1.2771   -0.2598
C                     0.        0.        0.5864
C                     0.       -1.2771   -0.2598
H                     0.        2.1752    0.3666
H                    -0.8837    1.3218   -0.9066
H                     0.8837    1.3218   -0.9066
H                     0.8769    0.        1.2465
H                    -0.8769    0.        1.2465
H                    -0.8837   -1.3218   -0.9066
H                     0.       -2.1752    0.3666
H                     0.8837   -1.3218   -0.9066

