%nproc=32
%mem=180GB
#P OPT=calcfc Freq B3LYP**

Frag_306

0 1
C                    -1.24     -1.0464    0.2065
C                    -0.5337    0.2575   -0.0689
N                    -1.3402    1.3945   -0.4125
C                     0.8199    0.3403   -0.0211
C                     1.6727   -0.8725    0.2279
O                     1.4955    1.555    -0.1775
H                    -2.342    -0.9156    0.1824
H                    -0.9661   -1.4274    1.2126
H                    -0.9683   -1.7975   -0.5645
H                    -2.3777    1.3559   -0.3014
H                    -0.9573    2.2298   -0.9044
H                     1.4728   -1.6502   -0.5389
H                     2.7479   -0.6011    0.1701
H                     1.4727   -1.2809    1.2406
H                     1.0438    2.4587   -0.2022

