%nproc=32
%mem=180GB
%chk=CBS-4M.Frag_1007.chk
#P CBS-4M

Frag_1007

0 1
C                    -1.0206   -0.99824  -0.81415
C                    -0.36719   0.04505   0.1073
C                    -0.85028   1.45379  -0.25802
N                    -0.64595  -0.18596   1.53935
C                     1.18921  -0.02757   0.02177
O                     1.59346   0.32394  -1.26266
O                     1.76738   0.82713   0.9422
O                     1.64162  -1.34021   0.33675
H                    -0.72027  -0.85035  -1.85591
H                    -0.74891  -2.01525  -0.51452
H                    -2.11127  -0.91664  -0.76204
H                    -0.61294   1.68062  -1.29868
H                    -0.37208   2.20285   0.37608
H                    -1.93615   1.52682  -0.12815
H                    -0.45095  -1.15646   1.76874
H                    -1.6246   -0.01116   1.74275
H                     2.53269   0.53769  -1.20138
H                     1.19386   0.76847   1.72593
H                     1.54287  -1.86465  -0.46525

