%nproc=32
%mem=180GB
%chk=CBS-4M.Frag_862.chk
#P CBS-4M

Frag_862

0 1
C                     1.85994   1.21292  -0.10891
N                     1.31326   0.0313   -0.14853
O                     1.96743  -1.04082  -0.29525
C                    -0.20064  -0.16606  -0.01859
C                    -0.40116  -1.07109   1.20496
C                    -0.95664   1.15242   0.1572
C                    -0.64239  -0.87495  -1.30636
H                     1.25748   2.09377   0.01932
H                     2.93465   1.25483  -0.20884
H                     0.20318  -1.97247   1.1019
H                    -0.10732  -0.55507   2.12453
H                    -1.45548  -1.34879   1.28959
H                    -0.82833   1.81905  -0.70043
H                    -2.02403   0.92851   0.24188
H                    -0.65898   1.68007   1.06793
H                    -0.04251  -1.77213  -1.45975
H                    -0.52093  -0.21917  -2.17438
H                    -1.69751  -1.15243  -1.23135

