%nproc=32
%mem=180GB
#P CBS-4M**

Frag_38

0 1
C                     0.584     1.4624    0.0817
C                     0.4262    0.0013   -0.3329
C                     1.6316   -0.8569    0.0349
O                    -0.6877   -0.6154    0.3346
N                    -1.9192   -0.0482   -0.1601
H                    -0.3253    2.0214   -0.1532
H                     0.7752    1.5365    1.158
H                     1.4199    1.9296   -0.4499
H                     0.2496   -0.0493   -1.4172
H                     2.5334   -0.4787   -0.4559
H                     1.7968   -0.8407    1.1172
H                     1.476    -1.8948   -0.2725
H                    -2.3964    0.2643    0.6875
H                    -2.4431   -0.8681   -0.4727

