%nproc=32
%mem=180GB
%chk=CBS-4M.Frag_610.chk
#P CBS-4M

Frag_610

0 1
C                     2.02014  -0.06873   0.02826
N                     1.07618   0.64754  -0.4142
C                    -0.28362   0.11068  -0.45025
C                    -1.15097   0.96192   0.48162
N                    -0.38996  -1.29955  -0.07293
H                     3.02546   0.35523   0.05741
H                     1.88701  -1.09018   0.39699
H                    -0.61963   0.29172  -1.48494
H                    -0.86674   0.77767   1.52228
H                    -1.00718   2.02134   0.26212
H                    -2.21099   0.71745   0.35768
H                    -0.13046  -1.89964  -0.84973
H                    -1.34905  -1.52535   0.16549

