%nproc=32
%mem=180GB
#P CBS-4M**

Frag_147

0 1
C                     0.6516    0.0941    0.0972
C                    -0.6516   -0.0941   -0.0972
H                     1.1256    1.0142   -0.2289
H                     1.248    -0.6714    0.5829
H                    -1.248     0.6714   -0.5829
H                    -1.1256   -1.0142    0.2289

