%nproc=32
%mem=180GB
#P CBS-4M**

Frag_29

0 1
C                    -1.8776    0.0981    0.
C                    -0.6275   -0.7585    0.
N                     0.6538    0.0529    0.
O                     1.6975   -0.592     0.
O                     0.5698    1.2764    0.
H                    -1.921     0.7368   -0.8842
H                    -1.9211    0.7367    0.8844
H                    -2.7536   -0.5576   -0.0001
H                    -0.5446   -1.3988   -0.8816
H                    -0.5446   -1.3989    0.8814

