%nproc=32
%mem=180GB
%chk=CBS-4M.Frag_1079.chk
#P CBS-4M

Frag_1079

0 1
C                     2.02606   0.28685  -0.04689
C                     0.98024  -0.44821   0.30967
C                    -0.46473  -0.14587  -0.04125
N                    -0.61168   1.21567  -0.53238
N                    -1.28433  -0.39569   1.12913
O                    -0.89409  -1.02361  -1.08655
H                     3.03854  -0.00697   0.20898
H                     1.8991    1.20495  -0.61001
H                     1.11833  -1.37421   0.86405
H                    -1.56054   1.32629  -0.87937
H                    -0.49143   1.86411   0.24052
H                    -2.2624   -0.3103    0.8609
H                    -1.1574   -1.35792   1.43415
H                    -0.33559  -0.83521  -1.85093

