%nproc=32
%mem=180GB
#P CBS-4M**

Frag_79

0 1
C                     1.7784    0.8131    0.0001
C                     0.7288   -0.2925    0.0001
O                     1.0672   -1.472    -0.0006
N                    -0.5963    0.0838    0.0013
C                    -1.6229   -0.9472    0.
C                    -1.0838    1.4505   -0.0006
H                     2.7527    0.3261    0.0002
H                     1.702     1.4529    0.8854
H                     1.702     1.4528   -0.8851
H                    -2.258    -0.8601   -0.8911
H                    -2.2633   -0.8563    0.8869
H                    -1.1314   -1.9183    0.0033
H                    -0.2631    2.1648    0.0027
H                    -1.7067    1.6419    0.8838
H                    -1.7002    1.6424   -0.8894

