%nproc=32
%mem=180GB
%chk=CBS-4M.Frag_627.chk
#P CBS-4M

Frag_627

0 1
N                     1.65862  -0.09192   0.20167
N                     0.66213  -0.57439  -0.74444
C                    -0.50777  -0.20457  -0.38717
N                    -0.83107   0.65298   0.65221
O                    -1.55574  -0.65657  -1.11584
H                     2.19008   0.61742  -0.30355
H                     2.31429  -0.86486   0.29717
H                    -1.64084   0.36411   1.18604
H                    -0.00654   0.78931   1.23253
H                    -2.28307  -0.03161  -1.01853

