%nproc=32
%mem=180GB
#P OPT=calcfc Freq B3LYP**

Frag_332

0 1
C                    -1.7929   -0.0627   -0.0844
C                    -0.5267   -0.4746   -0.0674
N                     0.5604    0.4313    0.1857
C                     1.786     0.006     0.1971
O                     0.3162    1.7667    0.4203
H                    -2.588    -0.7709   -0.2782
H                    -2.0536    0.9725    0.0921
H                    -0.325    -1.5243   -0.2511
H                     2.022    -1.0366    0.0174
H                     2.6015    0.6925    0.3883

