%nproc=32
%mem=180GB
%chk=CBS-4M.Frag_673.chk
#P CBS-4M

Frag_673

0 1
C                    -0.65286   0.25523   1.40549
C                    -0.08815  -0.03875  -0.00359
C                    -1.13792   0.36437  -1.05078
C                     0.20399  -1.5502   -0.14846
C                     1.21699   0.7539   -0.20488
N                     1.48339   1.63123  -1.0773
O                     2.21127   0.46448   0.67957
H                     0.03181  -0.0447    2.20583
H                    -0.85918   1.32235   1.53078
H                    -1.5873   -0.29421   1.55772
H                    -0.7906    0.15993  -2.06828
H                    -1.39168   1.42647  -0.97817
H                    -2.05789  -0.20719  -0.894
H                     0.61219  -1.77794  -1.13767
H                    -0.71835  -2.12514  -0.01816
H                     0.91957  -1.91523   0.59584
H                     0.68982   1.78414  -1.69253
H                     1.91499  -0.20893   1.2986

