%nproc=32
%mem=180GB
#P CBS-4M**

Frag_70

0 1
C                     1.2438    0.4775    0.1789
O                     0.2109    1.3323   -0.2629
C                    -1.0355    0.8383    0.1789
O                    -1.2594   -0.4836   -0.2628
C                    -0.2083   -1.3158    0.179
O                     1.0485   -0.8487   -0.263
H                     2.1776    0.8359   -0.2545
H                     1.2959    0.4973    1.2843
H                    -1.8128    1.4678   -0.2548
H                    -1.079     0.8736    1.2843
H                    -0.217    -1.3708    1.2844
H                    -0.3649   -2.3038   -0.2543

