%nproc=32
%mem=180GB
%chk=CBS-4M.Frag_999.chk
#P CBS-4M

Frag_999

0 1
C                    -0.94552  -0.52406   1.15006
C                    -0.28177  -0.17296  -0.19413
C                    -0.88485   1.09632  -0.79828
O                    -0.40844  -1.26995  -1.10435
C                     1.22337  -0.01673   0.02043
N                     1.80772   1.09843  -0.12382
O                     1.77845  -1.19495   0.40322
H                    -2.02296  -0.66089   1.00462
H                    -0.80511   0.2771    1.88235
H                    -0.52461  -1.44881   1.5487
H                    -1.96044   0.94881  -0.95179
H                    -0.74341   1.95727  -0.1424
H                    -0.41677   1.31847  -1.75864
H                    -1.34883  -1.38709  -1.27546
H                     2.80703   1.0443    0.08627
H                     2.72605  -1.06535   0.53322

