%nproc=32
%mem=180GB
%chk=CBS-4M.Frag_688.chk
#P CBS-4M

Frag_688

0 1
C                    -1.37757  -0.29658  -0.14561
C                     0.02376   0.26003  -0.12558
N                     0.40579   1.37604  -0.60369
C                     1.06712  -0.6051    0.53119
N                     2.29492  -0.31233   0.64767
H                    -2.07555   0.38487  -0.63741
H                    -1.39988  -1.26077  -0.66748
H                    -1.7298   -0.48551   0.87551
H                    -0.37025   1.889    -1.02625
H                     0.71524  -1.55979   0.9343
H                     2.44612   0.61004   0.21737

