%nproc=32
%mem=180GB
%chk=CBS-4M.Frag_925.chk
#P CBS-4M

Frag_925

0 1
C                     1.29229   1.55664  -0.01331
C                     0.88962   0.28237   0.0593
N                     1.74887  -0.81048   0.18937
C                    -0.57394  -0.15874  -0.11719
N                    -1.44847   1.00557  -0.12045
N                    -0.84392  -1.18324   0.91319
N                    -0.81649  -0.83865  -1.39192
H                     0.59497   2.34919  -0.23904
H                     2.33983   1.82081   0.0931
H                     2.69028  -0.57688   0.46985
H                     1.34056  -1.55806   0.73689
H                    -1.37302   1.50631   0.75861
H                    -2.40684   0.68755  -0.22698
H                    -1.74025  -1.61189   0.69977
H                    -0.91856  -0.74023   1.82462
H                    -0.11639  -1.56707  -1.50187
H                    -0.65883  -0.16308  -2.13403

