%nproc=32
%mem=180GB
#P CBS-4M**

Frag_257

0 1
C                    -1.0702   -0.3004    0.0286
C                    -0.1116    0.8474   -0.0136
N                     1.1713    0.6638   -0.0377
O                     1.7232   -0.5972   -0.0257
H                    -2.1123    0.0817    0.0438
H                    -0.9345   -0.9389   -0.8695
H                    -0.8957   -0.9046    0.9435
H                    -0.4988    1.8579   -0.0244
H                     2.7288   -0.7097   -0.0451

