%nproc=32
%mem=180GB
#P CBS-4M**

Frag_170

0 1
C                    -1.3497    0.1067    0.296
C                    -0.539    -1.0387   -0.374
N                     0.73     -0.41     -0.685
N                     1.943    -0.9068   -0.5364
N                     2.7246    0.0607   -0.0702
N                     2.0046    1.1523    0.1755
C                     0.7675    0.8255   -0.2364
N                    -0.4346    1.2498    0.3645
H                    -2.238     0.3733   -0.3155
H                    -1.6675   -0.1856    1.3199
H                    -1.0296   -1.3917   -1.306
H                    -0.3902   -1.8826    0.3345
H                    -0.5212    2.0472    1.0329

