%nproc=32
%mem=180GB
#P CBS-4M**

Frag_231

0 1
N                     1.8684   -0.1491   -0.4429
C                     0.6258    0.0846   -0.1682
N                    -0.2814   -0.868     0.1029
C                    -1.4057   -0.1558    0.32
N                    -1.1906    1.1716    0.1865
N                     0.0892    1.3124   -0.1204
H                     2.2428   -1.1238   -0.4689
H                    -0.154    -1.9039    0.1383
H                    -2.3632   -0.5927    0.5704
H                     0.5686    2.2246   -0.2893

