%nproc=32
%mem=180GB
#P CBS-4M**

Frag_233

0 1
C                    -1.3837    0.1135   -0.0682
C                     0.029    -0.0268    0.3902
N                     0.9972   -0.0494   -0.467
O                     2.3      -0.1786   -0.0462
H                    -1.9677   -0.7699    0.2638
H                    -1.4376    0.1872   -1.1756
H                    -1.8257    1.0291    0.3767
H                     0.237    -0.1097    1.4502
H                     3.0515   -0.1954   -0.7239

