%nproc=32
%mem=180GB
%chk=CBS-4M.Frag_546.chk
#P CBS-4M

Frag_546

0 1
C                     1.071    -1.25739  -0.54729
N                     0.10265  -0.82987   0.15254
C                    -0.17291   0.58677  -0.02236
N                    -1.21777   0.93772   0.76358
O                     0.43121   1.34175  -0.75347
H                     1.34829  -2.30909  -0.47946
H                     1.6383   -0.60434  -1.21827
H                    -1.54046   1.88941   0.76399
H                    -1.66051   0.24505   1.34074

