%nproc=32
%mem=180GB
%chk=CBS-4M.Frag_846.chk
#P CBS-4M

Frag_846

0 1
C                    -1.27872  -0.8583    0.28897
C                    -0.10601   0.05904   0.11602
N                    -0.30156   1.38873   0.52713
C                     1.07954  -0.377    -0.32317
O                     2.15922   0.4898   -0.38917
H                    -2.13806  -0.51862  -0.30575
H                    -1.03522  -1.87521  -0.02704
H                    -1.60641  -0.88887   1.335
H                    -1.19749   1.76591   0.2427
H                     0.45311   1.98982   0.2188
H                     1.26929  -1.42342  -0.53867
H                     2.70242   0.24815  -1.14472

