%nproc=32
%mem=180GB
%chk=CBS-4M.Frag_605.chk
#P CBS-4M

Frag_605

0 1
C                    -1.2948   -0.6251   -0.14427
C                    -0.01375   0.20756  -0.22153
C                     0.70534   0.30911   1.12448
N                    -0.23966   1.50923  -0.79152
O                     0.88366  -0.39137  -1.20807
O                     1.18613  -1.75331  -0.80559
H                    -1.78024  -0.64406  -1.12526
H                    -1.98651  -0.19408   0.58623
H                    -1.07134  -1.65355   0.14374
H                     1.02631  -0.67892   1.45946
H                     0.04317   0.73335   1.8854
H                     1.58796   0.95      1.02721
H                    -1.17591   1.63356  -1.14894
H                     0.00037   2.26679  -0.16952
H                     2.12936  -1.66933  -0.61173

