%nproc=32
%mem=180GB
%chk=CBS-4M.Frag_554.chk
#P CBS-4M

Frag_554

0 1
C                     1.07265  -0.50387  -0.87495
C                     0.01916   0.09178   0.01869
C                     0.18035   1.53662   0.40413
C                    -1.02223  -0.6127    0.46249
O                    -1.21785  -1.93292   0.14257
H                     1.13769   0.0426   -1.82523
H                     2.06554  -0.43895  -0.41038
H                     0.86679  -1.5523   -1.09681
H                    -0.63074   1.88069   1.05322
H                     1.12769   1.7061    0.93373
H                     0.19986   2.18704  -0.48087
H                    -1.77531  -0.16609   1.10834
H                    -2.0235   -2.23801   0.56506

