%nproc=32
%mem=180GB
#P OPT=calcfc Freq B3LYP**

Frag_103

0 1
C                     1.4859   -0.5287    0.
C                     0.5833    0.6807    0.
N                    -0.6867    0.7496    0.
C                    -1.4747   -0.4824    0.
H                     0.9434   -1.4755    0.
H                     2.1421   -0.5028   -0.8786
H                     2.1421   -0.5028    0.8786
H                     1.112     1.6412    0.
H                    -1.2816   -1.1011   -0.8865
H                    -1.2815   -1.1011    0.8864
H                    -2.5362   -0.2227    0.

