%nproc=32
%mem=180GB
#P CBS-4M**

Frag_276

0 1
C                    -1.5316   -0.4771   -0.0878
N                    -0.1192   -0.1088    0.0178
C                     0.231     1.2899    0.278
C                     0.8875   -1.099    -0.2746
N                     2.1556   -0.8477   -0.1739
H                    -2.1027   -0.0403    0.7588
H                    -1.9452   -0.0943   -1.0444
H                    -1.6631   -1.5799   -0.0531
H                     0.8147    1.3624    1.2196
H                     0.8287    1.6936   -0.5665
H                    -0.68      1.9172    0.3857
H                     0.5859   -2.0926   -0.5809
H                     2.5383    0.0765    0.1214

