%nproc=32
%mem=180GB
%chk=CBS-4M.Frag_625.chk
#P CBS-4M

Frag_625

0 1
C                     1.94293   0.50051  -1.11085
C                     1.17569  -0.28165  -0.35228
O                     1.69942  -1.47627   0.07596
C                    -0.25123   0.01568   0.09963
C                    -0.30289   0.04667   1.64618
C                    -0.74119   1.37199  -0.43162
C                    -1.19697  -1.08932  -0.42948
H                     1.59576   1.45178  -1.48196
H                     2.94649   0.18765  -1.37189
H                     1.05013  -1.94115   0.61013
H                     0.01328  -0.89938   2.09943
H                    -1.32477   0.24154   1.98717
H                     0.3476    0.8331    2.04006
H                    -0.74139   1.39639  -1.52502
H                    -0.11482   2.19251  -0.07036
H                    -1.76518   1.55528  -0.09086
H                    -1.18721  -1.11697  -1.52305
H                    -0.92237  -2.0882   -0.07275
H                    -2.22318  -0.89997  -0.09855

