%nproc=32
%mem=180GB
%chk=CBS-4M.Frag_1074.chk
#P CBS-4M

Frag_1074

0 1
C                    -0.57109  -1.26936   0.50662
C                    -0.24383   0.11121  -0.12661
C                    -1.47959   0.64029  -0.86271
N                     0.15876   1.00671   1.01766
N                     0.81532   0.09809  -1.10356
N                     2.02061  -0.19668  -0.3372
H                    -1.42536  -1.22849   1.19431
H                    -0.80457  -1.98148  -0.28883
H                     0.2769   -1.66374   1.0807
H                    -1.74062  -0.02308  -1.69254
H                    -2.34163   0.7181   -0.19145
H                    -1.26264   1.62681  -1.28347
H                     0.11973   1.97029   0.69612
H                    -0.47239   0.92406   1.81001
H                     2.8159    0.17634  -0.84989
H                     1.91849   0.28795   0.58474
H                     2.21611  -1.19693  -0.15381

