%nproc=32
%mem=180GB
%chk=CBS-4M.Frag_666.chk
#P CBS-4M

Frag_666

0 1
C                    -1.26001  -0.19157   1.30354
C                    -0.67298  -0.18796   0.09746
N                    -1.39116  -0.06531  -1.1079
N                     0.70693  -0.43989  -0.11339
N                     1.45245  -0.45121   1.08114
N                     1.35148   0.30336  -1.14655
H                    -2.33272  -0.0603    1.38036
H                    -0.70268  -0.41904   2.19695
H                    -2.35392   0.18905  -0.93391
H                    -0.98222   0.58521  -1.76553
H                     2.33202  -0.90695   0.86088
H                     1.67569   0.50845   1.35968
H                     1.14896  -0.13753  -2.0378
H                     1.02819   1.27378  -1.17491

