%nproc=32
%mem=180GB
#P CBS-4M**

Frag_67

0 1
C                    -1.3749   -0.042     0.
C                     0.133     0.1381    0.
O                     0.6965    1.2014   -0.0001
O                     0.8575   -1.0174    0.0001
H                    -1.8526    0.9366   -0.0002
H                    -1.6973   -0.6009   -0.8856
H                    -1.6974   -0.6007    0.8857
H                     0.2665   -1.7836    0.0002

