%nproc=32
%mem=180GB
%chk=CBS-4M.Frag_618.chk
#P CBS-4M

Frag_618

0 1
C                    -1.10027  -0.38432   1.30533
N                    -0.59958  -0.55924  -0.04774
C                    -1.63412  -0.28608  -1.03753
C                     0.69895   0.05793  -0.3398
C                     1.79017  -0.51606   0.57524
N                     0.60095   1.52852  -0.30419
O                     1.09725  -0.27704  -1.6524
H                    -0.36209  -0.70426   2.04315
H                    -1.40623   0.65239   1.5502
H                    -1.98712  -1.01243   1.43818
H                    -1.97019   0.76457  -1.05362
H                    -1.27334  -0.55424  -2.03168
H                    -2.50227  -0.91609  -0.81926
H                     1.78236  -1.60776   0.53318
H                     1.66888  -0.19776   1.61249
H                     2.76025  -0.16075   0.21884
H                     1.53392   1.93091  -0.33914
H                     0.18346   1.8371    0.56888
H                     0.71892   0.4047   -2.22013

