%nproc=32
%mem=180GB
%chk=CBS-4M.Frag_601.chk
#P CBS-4M

Frag_601

0 1
C                     1.63017   0.47165  -0.12156
C                     0.65253  -0.67759  -0.25289
O                     1.00409  -1.83939  -0.45762
N                    -0.67222  -0.39802  -0.16819
C                    -1.34801   0.75831   0.35579
O                    -1.50832  -1.51871  -0.20905
H                     1.36473   1.31584  -0.76336
H                     2.61327   0.09851  -0.4076
H                     1.67913   0.83142   0.91144
H                    -0.67172   1.61222   0.33378
H                    -2.22249   0.9829   -0.26264
H                    -1.68406   0.58635   1.38624
H                    -0.8369   -2.22348  -0.34414

