%nproc=32
%mem=180GB
%chk=CBS-4M.Frag_829.chk
#P CBS-4M

Frag_829

0 1
C                    -1.25669   0.01809  -0.12456
C                     0.15691  -0.24035   0.39831
N                     1.01079   0.92691   0.13997
N                     2.03429   0.78284  -0.5329
H                    -1.25431   0.13607  -1.21207
H                    -1.66742   0.92952   0.31701
H                    -1.91278  -0.81886   0.12941
H                     0.59951  -1.1459   -0.05273
H                     0.13291  -0.37079   1.48706
H                     2.15678  -0.21752  -0.8348

