%nproc=32
%mem=180GB
#P OPT=calcfc Freq B3LYP**

Frag_319

0 1
N                     1.1615    1.3887   -0.4923
C                     0.6629    0.1397    0.0063
N                     1.614    -0.8037    0.5186
C                    -0.6629   -0.1397   -0.0063
N                    -1.1449   -1.458     0.2882
N                    -1.6306    0.873    -0.3145
H                     2.165     1.6394   -0.3506
H                     0.6012    2.008    -1.1173
H                     2.6358   -0.6275    0.3961
H                     1.3401   -1.5988    1.1357
H                    -0.5313   -2.3009    0.2554
H                    -2.1695   -1.6206    0.4058
H                    -2.6313    0.6087   -0.4513
H                    -1.41      1.8917   -0.2738

