%nproc=32
%mem=180GB
#P CBS-4M**

Frag_69

0 1
C                    -1.3274   -1.273     0.053
C                    -0.6426    0.       -0.4757
C                    -1.3274    1.273     0.0531
C                     0.8381    0.       -0.1353
O                     1.7486    0.0001   -0.9343
O                     1.0571   -0.0001    1.2063
H                    -1.2898   -1.3112    1.1453
H                    -0.8497   -2.1766   -0.338
H                    -2.3777   -1.287    -0.2548
H                    -0.6777    0.0001   -1.5694
H                    -1.2898    1.3111    1.1454
H                    -0.8496    2.1767   -0.3378
H                    -2.3776    1.287    -0.2547
H                     2.0228   -0.0001    1.3175

