%nproc=32
%mem=180GB
%chk=CBS-4M.Frag_1065.chk
#P CBS-4M

Frag_1065

0 1
C                    -1.47861   0.72513   0.85665
N                    -0.58388  -0.31      0.36194
C                    -1.04547  -0.85253  -0.91193
C                     0.80743   0.1148    0.35772
N                     1.1126    1.12801  -0.6544
N                     1.63147  -1.0802    0.16642
H                    -1.51861   1.61156   0.20201
H                    -2.49009   0.31545   0.94489
H                    -1.15905   1.05072   1.85249
H                    -0.33453  -1.60026  -1.26749
H                    -1.16792  -0.08048  -1.69175
H                    -2.01716  -1.33569  -0.7656
H                     0.97055   0.60468   1.33146
H                     1.31353   0.66483  -1.53692
H                     1.94538   1.64823  -0.39792
H                     2.61256  -0.84117   0.26924
H                     1.4017   -1.76308   0.8831

