%nproc=32
%mem=180GB
%chk=CBS-4M.Frag_725.chk
#P CBS-4M

Frag_725

0 1
C                    -0.92903  -0.99763  -0.24036
C                    -0.14896   0.2502    0.07273
C                     1.35343   0.28481   0.00025
N                    -0.78529   1.31897   0.41227
N                    -1.35125   2.26958   0.71434
H                    -0.7393   -1.33747  -1.26733
H                    -2.00358  -0.83172  -0.13444
H                    -0.64674  -1.82107   0.4293
H                     1.70822   0.03837  -1.00951
H                     1.74131   1.27217   0.26104
H                     1.8011   -0.44622   0.68681

