%nproc=32
%mem=180GB
%chk=CBS-4M.Frag_1154.chk
#P CBS-4M

Frag_1154

0 1
C                    -0.95596  -0.20424   0.06914
C                     0.39374   0.35804   0.42831
O                     0.64295   1.00143   1.41429
C                     1.46689   0.06203  -0.5518
N                     2.29756  -0.17291  -1.3211
H                    -1.67913   0.06148   0.84069
H                    -1.27562   0.1875   -0.90285
H                    -0.89033  -1.29331  -0.03179

