%nproc=32
%mem=180GB
#P OPT=calcfc Freq B3LYP**

Frag_409

0 1
C                     1.7426   -0.2026   -0.3609
N                     0.6993    0.5438   -0.5605
C                    -0.6212    0.3465   -0.0202
C                    -1.0009   -0.7812    0.5879
O                    -1.554     1.3702   -0.1539
H                     2.679     0.0589   -0.8339
H                     1.7215   -1.0681    0.2849
H                    -0.3481   -1.6337    0.6993
H                    -2.0092   -0.8723    0.9715
H                    -1.3088    2.2385   -0.6142

