%nproc=32
%mem=180GB
#P CBS-4M**

Frag_166

0 1
C                    -0.728    -0.2485   -1.4866
C                    -0.4296    0.2795   -0.2925
C                    -1.1454    1.528     0.1512
C                     0.5451   -0.3891    0.6184
C                     1.6073   -1.3028    0.0792
N                     0.4706   -0.2309    1.9044
H                    -0.2708   -1.165    -1.8348
H                    -1.4548    0.2218   -2.1376
H                    -2.0294    1.2522    0.7634
H                    -1.4848    2.1325   -0.7177
H                    -0.4658    2.1664    0.7542
H                     1.1692   -2.3004   -0.1331
H                     2.039    -0.8811   -0.8529
H                     2.4303   -1.4241    0.8158
H                    -0.2529    0.3613    2.3687

