%nproc=32
%mem=180GB
%chk=CBS-4M.Frag_761.chk
#P CBS-4M

Frag_761

0 1
C                     1.46082  -0.41863   0.0753
C                     0.37771   0.61436  -0.27383
C                    -1.01972   0.04982  -0.1905
N                    -1.99102   0.41087   0.54245
O                    -1.18433  -0.98487  -1.04839
H                     1.40545  -1.27783  -0.59683
H                     2.45607   0.02597  -0.01255
H                     1.34087  -0.78149   1.10077
H                     0.44424   1.48157   0.38901
H                     0.53683   0.97349  -1.29777
H                    -1.73112   1.1947    1.13685
H                    -2.0958   -1.28806  -0.9256

