%nproc=32
%mem=180GB
%chk=CBS-4M.Frag_815.chk
#P CBS-4M

Frag_815

0 1
C                    -0.55674  -1.5599    0.16626
C                    -0.20785  -0.28544   0.03912
C                    -1.12151   0.89868   0.02288
N                     1.23402  -0.00379  -0.10121
N                     1.53344   1.22715  -0.22131
O                     2.0327   -0.95727  -0.09288
H                    -1.59919  -1.8321    0.27303
H                     0.1944   -2.33744   0.16451
H                    -1.02768   1.4596   -0.91065
H                    -0.88449   1.5939    0.83247
H                    -2.15366   0.55918   0.13394
H                     2.55647   1.23734  -0.30615

