%nproc=32
%mem=180GB
#P OPT=calcfc Freq B3LYP**

Frag_82

0 1
C                     2.0521   -0.181     0.
C                     0.6574   -0.7541    0.
C                    -0.47     -0.0288    0.
C                    -0.4212    1.4863    0.
C                    -1.8313   -0.7056    0.
H                     2.8081   -0.9705    0.
H                     2.2362    0.45     -0.8797
H                     2.2362    0.45      0.8797
H                     0.5742   -1.8406    0.
H                     0.1107    1.8734   -0.8787
H                     0.1107    1.8734    0.8787
H                    -1.421     1.9276    0.
H                    -1.9653   -1.3436    0.881
H                    -1.9653   -1.3436   -0.881
H                    -2.6464    0.0233    0.

