%nproc=32
%mem=180GB
#P OPT=calcfc Freq B3LYP**

Frag_353

0 1
C                    -0.7087   -0.3024    1.5731
C                    -0.7341   -0.1752    0.2356
C                    -1.9666   -0.6186   -0.5096
C                     0.4503    0.4054   -0.521
C                     1.6977   -0.4787   -0.3742
N                     0.7145    1.7777   -0.0795
H                     0.1562    0.0018    2.1533
H                    -1.5585   -0.7171    2.1074
H                    -2.8464   -0.0388   -0.1585
H                    -2.1471   -1.6991   -0.3263
H                    -1.8636   -0.4653   -1.6038
H                     0.2055    0.4402   -1.6056
H                     2.5243   -0.0715   -0.9943
H                     2.0374   -0.5217    0.6821
H                     1.4754   -1.51     -0.7226
H                     1.149     1.7671    0.872
H                     1.4147    2.2062   -0.7281

