%nproc=32
%mem=180GB
%chk=CBS-4M.Frag_1008.chk
#P CBS-4M

Frag_1008

0 1
C                     1.17363   0.04004  -0.66364
C                     0.03003  -0.28973   0.29777
C                    -1.28417   0.40883  -0.05694
O                    -0.13612  -1.68024   0.46992
N                     0.44219   0.15335   1.6982
O                     0.63849   1.33564   1.77458
H                     1.37244   1.11453  -0.66031
H                     0.9098   -0.26445  -1.68169
H                     2.07891  -0.49467  -0.36416
H                    -2.06162   0.12665   0.65794
H                    -1.1532    1.4935   -0.0369
H                    -1.60923   0.1135   -1.05987
H                    -0.40124  -2.05705  -0.37491

