%nproc=32
%mem=180GB
#P OPT=calcall Freq B3LYP**

Frag_130

0 1
C                    -1.7553    0.0162   -0.0305
N                    -0.7457   -0.7557    0.0401
N                     0.5461    0.0232    0.0045
O                     0.5211    1.2438    0.0134
O                     1.5212   -0.6952   -0.0226
H                    -1.6774    1.1056   -0.0997
H                    -2.7321   -0.4628   -0.0157

