%nproc=32
%mem=180GB
%chk=CBS-4M.Frag_966.chk
#P CBS-4M

Frag_966

0 1
N                     0.9043   -0.86074   0.1478
C                    -0.03962   0.04499  -0.49572
N                    -1.36638  -0.00971   0.09082
O                     0.38251   1.39074  -0.57019
H                     1.83025  -0.75821  -0.24581
H                     0.96133  -0.54171   1.12339
H                    -0.11512  -0.28     -1.54093
H                    -1.35775   0.02936   1.07952
H                    -1.58888  -0.89358   0.26645
H                     0.68936   1.93887   0.39956

