%nproc=32
%mem=180GB
%chk=CBS-4M.Frag_469.chk
#P CBS-4M

Frag_469

0 1
C                     1.76366   0.53811  -0.44609
O                     0.75683   0.51002   0.53774
C                    -0.29225  -0.43904   0.30263
C                    -1.26051   0.05066  -0.77221
N                    -1.00036  -0.68928   1.52918
H                     2.18645  -0.46374  -0.62633
H                     1.41086   0.93625  -1.4093
H                     2.55998   1.19031  -0.07759
H                     0.17364  -1.38552  -0.01891
H                    -1.72044   0.9939   -0.45775
H                    -2.04886  -0.68872  -0.93247
H                    -0.74881   0.22297  -1.72245
H                    -1.44553   0.17019   1.84109
H                    -0.33465  -0.94591   2.25245

