%nproc=32
%mem=180GB
#P OPT=calcfc Freq B3LYP**

Frag_396

0 1
C                    -1.2734   -0.3318   -0.9464
C                    -0.3431    0.1842    0.1641
C                    -0.3295    1.7246    0.1305
O                    -0.8517   -0.2534    1.4022
C                     1.0936   -0.3557   -0.0494
N                     1.1298   -1.8149    0.0298
H                    -2.299     0.074    -0.8103
H                    -0.9014   -0.0247   -1.9477
H                    -1.34     -1.4403   -0.9172
H                    -1.3508    2.1239    0.3108
H                     0.3427    2.1263    0.9188
H                     0.0273    2.0933   -0.8555
H                    -0.2442    0.0765    2.1156
H                     1.7809    0.073     0.715
H                     1.466    -0.0365   -1.0486
H                     2.091    -2.1247   -0.2413
H                     1.0019   -2.0939    1.0296

