%nproc=32
%mem=180GB
%chk=CBS-4M.Frag_607.chk
#P CBS-4M

Frag_607

0 1
C                    -1.89627  -0.18969  -0.42071
N                    -0.76665   0.04497  -0.9389
C                     0.26596   0.59687  -0.14021
C                     1.53604  -0.22281  -0.16805
O                     0.14733   1.6561    0.42751
H                    -2.70587  -0.56719  -1.0468
H                    -2.11586  -0.03024   0.6413
H                     2.26836   0.21237   0.51192
H                     1.33018  -1.26145   0.10979
H                     1.93688  -0.23893  -1.18646

