%nproc=32
%mem=180GB
%chk=CBS-4M.Frag_581.chk
#P CBS-4M

Frag_581

0 1
C                    -1.63875  -0.21828   0.53345
C                    -0.21825   0.03964   0.03675
C                     0.65092  -1.21611   0.06347
O                    -0.20702   0.4968   -1.30353
O                     0.26612   1.06776   0.90585
N                     1.56368   1.56229   0.57457
H                    -2.20934   0.7158    0.52677
H                    -2.1353   -0.94639  -0.11211
H                    -1.62696  -0.5969    1.5583
H                     1.63754  -1.0181   -0.36205
H                     0.18665  -2.00492  -0.53285
H                     0.76709  -1.56933   1.09109
H                    -0.83139   1.23047  -1.35941
H                     2.22359   0.81653   0.80393
H                     1.57132   1.64065  -0.44514

