%nproc=32
%mem=180GB
%chk=CBS-4M.Frag_521.chk
#P CBS-4M

Frag_521

0 1
C                    -1.79309  -0.06254   0.089
N                    -0.40781   0.37049   0.2832
N                     0.40781  -0.37049  -0.2832
C                     1.79309   0.06254  -0.089
H                    -2.23769  -0.23085   1.07586
H                    -1.86512  -0.96668  -0.52422
H                    -2.34464   0.76209  -0.3755
H                     2.34464  -0.76209   0.3755
H                     2.23769   0.23085  -1.07586
H                     1.86512   0.96668   0.52422

