%nproc=32
%mem=180GB
#P CBS-4M**

Frag_279

0 1
N                    -1.8421    0.2845   -0.3581
N                    -0.5674   -0.2992   -0.2803
C                     0.5598    0.4629    0.161
N                     1.8524   -0.1382    0.2189
O                     0.4161    1.6681    0.4997
H                    -2.4935   -0.4273   -0.7608
H                    -2.1616    0.4603    0.6216
H                    -0.4286   -1.2902   -0.5839
H                     2.6778    0.415     0.5401
H                     1.987    -1.1357   -0.0581

