%nproc=32
%mem=180GB
%chk=CBS-4M.Frag_647.chk
#P CBS-4M

Frag_647

0 1
C                    -0.981    -0.83282   0.88417
C                    -0.43951   0.24657  -0.06672
N                    -0.49334  -0.24837  -1.43434
O                    -1.16778   1.44467   0.09526
C                     1.0335    0.55988   0.30892
N                     1.94833  -0.29363  -0.19803
O                     1.28682   1.50007   1.04639
H                    -0.87168  -0.5       1.91882
H                    -0.45631  -1.78301   0.75613
H                    -2.04748  -0.97888   0.68533
H                    -1.42076  -0.61972  -1.62061
H                    -0.37111   0.53975  -2.06592
H                    -0.60178   2.00304   0.65541
H                     1.65628  -0.91537  -0.93573
H                     2.92583  -0.12209  -0.02909

