%nproc=32
%mem=180GB
%chk=CBS-4M.Frag_730.chk
#P CBS-4M

Frag_730

0 1
C                     2.27929  -0.94464   0.0792
C                     1.21822  -0.41428   0.27088
C                    -0.09412   0.20672   0.46294
C                    -1.18467  -0.60054  -0.27313
N                    -0.02305   1.6293    0.08656
H                     3.22434  -1.40466  -0.0718
H                    -0.32276   0.18234   1.53752
H                    -0.99146  -0.60796  -1.35046
H                    -2.16646  -0.14763  -0.09843
H                    -1.21564  -1.63728   0.07572
H                     0.22597   1.70017  -0.89684
H                    -0.94967   2.03837   0.17774

