%nproc=32
%mem=180GB
%chk=CBS-4M.Frag_936.chk
#P CBS-4M

Frag_936

0 1
C                     1.33098  -0.177     0.4281
C                     0.10416   0.06985  -0.44616
N                    -1.01116  -0.79333  -0.1408
N                    -0.23354   1.55056  -0.297
N                    -1.37202   1.84339   0.0642
H                     2.09123   0.58311   0.2354
H                     1.05681  -0.11494   1.48769
H                     1.75677  -1.16556   0.23406
H                     0.38148  -0.01509  -1.50354
H                    -0.8503   -1.39034   0.65857
H                    -1.32514  -1.35038  -0.92181
H                    -1.92937   0.95973   0.20138

