%nproc=32
%mem=180GB
%chk=CBS-4M.Frag_855.chk
#P CBS-4M

Frag_855

0 1
C                     1.78081   0.1601    0.77042
C                     0.96759   0.22136  -0.52217
N                    -0.53685   0.02887  -0.43089
C                    -0.85861  -1.32439   0.13066
C                    -1.13943   1.07116   0.44363
N                    -1.16517   0.24336  -1.71379
H                     1.49759   0.94327   1.47878
H                     2.83743   0.31077   0.52522
H                     1.69879  -0.80823   1.27239
H                     1.07132   1.18103  -1.0305
H                     1.29886  -0.55124  -1.22125
H                    -1.94147  -1.42577   0.08318
H                    -0.49337  -1.45547   1.15634
H                    -0.4015   -2.06892  -0.52319
H                    -2.21883   0.94801   0.37251
H                    -0.79694   0.97098   1.47576
H                    -0.86984   2.04082   0.02754
H                    -0.73049  -0.4858   -2.29464

