%nproc=32
%mem=180GB
%chk=CBS-4M.Frag_452.chk
#P CBS-4M

Frag_452

0 1
C                     2.16041  -0.20564   0.20712
C                     0.72477  -0.49452   0.61001
O                     0.4545   -1.04282   1.65409
C                    -0.3664   -0.03977  -0.36556
C                    -1.58209  -0.96913  -0.31081
C                    -0.75372   1.41353  -0.01759
H                     2.437    -0.85626  -0.63174
H                     2.83235  -0.39632   1.0448
H                     2.27644   0.82541  -0.14302
H                     0.05917  -0.04246  -1.37746
H                    -1.32109  -1.98512  -0.6221
H                    -1.96799  -1.0256    0.70996
H                    -2.37696  -0.60428  -0.96852
H                    -1.17505   1.46303   0.99147
H                    -1.50624   1.78357  -0.72044
H                     0.10499   2.09117  -0.05992

