%nproc=32
%mem=180GB
%chk=CBS-4M.Frag_1127.chk
#P CBS-4M

Frag_1127

0 1
C                    -1.04102  -0.72238  -0.18324
C                    -0.10652   0.33382   0.40246
O                    -0.60668   1.64105   0.28447
N                     1.17432   0.26942  -0.33564
N                     2.07339  -0.29381   0.30437
H                    -1.13722  -0.58924  -1.26632
H                    -2.02882  -0.62327   0.27342
H                    -0.6568   -1.72847   0.00749
H                     0.06755   0.16059   1.46952
H                    -0.6535    1.84708  -0.65725
H                     2.91509  -0.2949   -0.29938

