%nproc=32
%mem=180GB
#P OPT=calcfc Freq B3LYP**

Frag_412

0 1
C                     2.0542   -0.2215    0.2513
C                     0.6865   -0.7601   -0.0319
O                     0.546    -1.9926   -0.2599
N                    -0.4565    0.1115   -0.0453
C                    -1.7909   -0.4227   -0.3231
N                    -0.2876    1.4837    0.2102
H                     2.8097   -1.0353    0.22
H                     2.0707    0.2429    1.2593
H                     2.3193    0.5418   -0.5097
H                    -2.5513    0.3865   -0.2933
H                    -1.8074   -0.8865   -1.3319
H                    -2.0563   -1.1856    0.4388
H                    -0.6523    2.0084   -0.6173
H                    -0.8842    1.7296    1.0329

