%nproc=32
%mem=180GB
#P OPT=calcfc Freq B3LYP**

Frag_184

0 1
N                    -0.0839    1.5187    0.2657
C                    -0.0933    0.2452    0.0323
N                     1.1244   -0.5031    0.0575
N                    -1.328    -0.412    -0.2514
H                     0.8013    2.0313    0.4766
H                     1.1167   -1.53     -0.1307
H                     2.0362   -0.0373    0.2634
H                    -2.2231    0.1256   -0.2722
H                    -1.3504   -1.4383   -0.4414

