%nproc=32
%mem=180GB
%chk=CBS-4M.Frag_934.chk
#P CBS-4M

Frag_934

0 1
C                     1.18123  -1.51356   0.4429
N                     0.54378  -0.54386   0.93563
C                    -0.44786   0.19573   0.1102
C                     0.13556   1.59236  -0.14003
N                    -0.88064  -0.37519  -1.1388
O                    -1.61004   0.25473   0.91176
H                     1.05847  -1.86708  -0.5897
H                     1.90099  -2.05113   1.06189
H                     0.46739   2.02896   0.8043
H                    -0.63829   2.22229  -0.58244
H                     0.99566   1.54717  -0.81648
H                    -1.27471  -1.29932  -0.99992
H                    -0.13544  -0.42003  -1.82274
H                    -1.29619   0.22903   1.82344

