%nproc=32
%mem=180GB
%chk=CBS-4M.Frag_836.chk
#P CBS-4M

Frag_836

0 1
C                    -1.46546  -0.98022   0.23643
C                    -0.74795   0.27542  -0.16443
N                    -1.25148   1.33131  -0.65777
C                     0.77755   0.30558   0.05255
N                     1.41397  -0.79075  -0.66364
O                     1.30086   1.50388  -0.39866
O                     0.94442   0.16701   1.46081
H                    -1.28394  -1.18663   1.29588
H                    -2.54143  -0.89839   0.06447
H                    -1.07097  -1.82632  -0.33392
H                    -2.26261   1.26729  -0.77882
H                     1.7292   -1.48822   0.0009
H                     2.21671  -0.42607  -1.16359
H                     0.52168   2.04807  -0.63029
H                     1.71913   0.69805   1.67999

