%nproc=32
%mem=180GB
#P CBS-4M**

Frag_42

0 1
C                    -0.8005    1.4524    0.3188
N                     0.335     1.3839   -0.6243
C                     1.5945    0.8985   -0.0598
N                     1.3594   -0.3306    0.6708
C                     0.9606   -1.5121   -0.1005
N                    -0.3982   -1.4954   -0.6109
C                    -1.4389   -0.9658    0.2878
N                    -1.8241    0.4361    0.1357
H                    -1.2937    2.4231    0.1944
H                    -0.4448    1.3859    1.3529
H                     0.4912    2.2786   -1.0771
H                     2.3054    0.7891   -0.9027
H                     2.0503    1.6037    0.6609
H                     2.1454   -0.5412    1.2761
H                     1.0772   -2.3643    0.5822
H                     1.6207   -1.6967   -0.9663
H                    -0.421    -0.96     -1.4726
H                    -1.1166   -1.131     1.3201
H                    -2.3565   -1.5459    0.132
H                    -2.2556    0.5627   -0.7768

