%nproc=32
%mem=180GB
%chk=CBS-4M.Frag_734.chk
#P CBS-4M

Frag_734

0 1
N                    -2.01259   0.58411  -0.18775
C                    -0.77209   0.69005   0.0329
C                     0.17128  -0.4931   -0.08373
N                     1.47253  -0.21112   0.18608
O                    -0.23767  -1.59453  -0.39664
H                    -2.19968  -0.39804  -0.43851
H                    -0.35519   1.66143   0.3177
H                     2.15427  -0.94996   0.12786
H                     1.77893   0.71116   0.4423

