%nproc=32
%mem=180GB
%chk=CBS-4M.Frag_550.chk
#P CBS-4M

Frag_550

0 1
C                    -1.05207   1.33072  -0.52101
C                    -0.60759   0.11155  -0.21898
C                    -1.53515  -1.05557  -0.00014
C                     0.87595  -0.19977  -0.03786
N                     1.71121   0.84809  -0.60941
N                     1.2895   -0.32758   1.36736
H                    -2.11373   1.53823  -0.61499
H                    -0.36686   2.15666  -0.66998
H                    -1.33744  -1.85982  -0.72066
H                    -1.40245  -1.49405   0.99738
H                    -2.58269  -0.76077  -0.09787
H                     1.05973  -1.19461  -0.48556
H                     2.68272   0.60784  -0.44145
H                     1.56848   0.90613  -1.61233
H                     0.81906  -1.1157    1.80127
H                     0.99132   0.50877   1.86413

