%nproc=32
%mem=180GB
%chk=CBS-4M.Frag_519.chk
#P CBS-4M

Frag_519

0 1
C                     1.84665  -0.06665   0.12496
C                     0.43698  -0.59977  -0.14264
C                    -0.67188   0.32072   0.37416
N                    -2.03458  -0.15988   0.17047
O                    -0.52551   1.55718  -0.29448
H                     1.9854    0.90651  -0.35164
H                     2.60833  -0.75208  -0.25905
H                     2.02343   0.05801   1.19946
H                     0.28237  -0.73342  -1.22155
H                     0.30699  -1.58351   0.32501
H                    -0.55099   0.45104   1.4644
H                    -2.24564  -0.9162    0.81469
H                    -2.12904  -0.53369  -0.77124
H                    -1.3324    2.05162  -0.11095

