%nproc=32
%mem=180GB
%chk=CBS-4M.Frag_637.chk
#P CBS-4M

Frag_637

0 1
C                     1.54858   1.01756  -0.77844
N                     0.83839   0.32474   0.29258
C                     1.56097  -0.87123   0.69303
C                    -0.61202   0.16255   0.05852
C                    -1.24943  -0.58301   1.24926
C                    -0.9547   -0.57692  -1.25272
N                    -1.14246   1.53202  -0.05487
H                     1.74732   0.38061  -1.65978
H                     2.51755   1.36113  -0.39942
H                     0.96871   1.88293  -1.0977
H                     2.60047  -0.59603   0.89898
H                     1.58345  -1.66496  -0.07825
H                     1.14988  -1.29863   1.60922
H                    -2.33855  -0.50878   1.17384
H                    -0.99755  -1.6471    1.27744
H                    -0.93763  -0.12641   2.19426
H                    -0.50058  -1.572    -1.2721
H                    -0.60385  -0.0131   -2.11949
H                    -2.03776  -0.70848  -1.35179
H                    -0.99579   2.00844   0.83152
H                    -2.14501   1.49677  -0.21418

