%nproc=32
%mem=180GB
#P OPT=calcfc Freq B3LYP**

Frag_192

0 1
C                     1.0994   -0.1048    0.4976
N                    -0.2248    0.0349   -0.1073
N                    -0.5874    1.2324   -0.7482
N                    -1.1435   -1.0288   -0.0511
O                    -2.2738   -0.9104   -0.5671
O                    -0.8085   -2.2095    0.5715
H                     1.6417   -0.9466    0.0185
H                     1.693     0.8243    0.3622
H                     0.9942   -0.3047    1.5844
H                     0.1067    1.4073   -1.5102
H                    -0.4969    2.0058   -0.0505

