%nproc=32
%mem=180GB
#P OPT=calcfc Freq B3LYP**

Frag_235

0 1
C                    -1.8947    0.1527   -0.0506
C                    -0.4389    0.3176   -0.3563
N                     0.4777   -0.2999    0.332
C                     1.8907   -0.121     0.0122
O                     0.1287   -1.1321    1.3733
H                    -2.4978    0.7642   -0.7541
H                    -2.1855   -0.913    -0.1614
H                    -2.1032    0.4891    0.9867
H                    -0.1576    0.9714   -1.175
H                     2.5186   -0.7232    0.7026
H                     2.1722    0.9485    0.1196
H                     2.0898   -0.4542   -1.029

