%nproc=32
%mem=180GB
#P OPT=calcfc Freq B3LYP**

Frag_392

0 1
C                    -1.2745   -0.8787   -0.5462
C                    -0.4524    0.3014   -0.1021
N                    -1.0644    1.5995   -0.107
C                     0.8299    0.1596    0.294
N                     1.4813   -1.1189    0.3146
O                     1.5517    1.2823    0.6969
H                    -2.2995   -0.5636   -0.8327
H                    -0.8047   -1.3587   -1.4307
H                    -1.3617   -1.6148    0.2807
H                    -2.0559    1.719    -0.4118
H                    -0.547     2.4567    0.1896
H                     1.0069   -2.0027    0.028
H                     2.4748   -1.1874    0.6277
H                     2.5154    1.2063    0.9991

