%nproc=32
%mem=180GB
#P CBS-4M**

Frag_251

0 1
C                    -0.832     0.5153   -0.4115
C                     0.4499    0.9324    0.2357
C                     1.2567   -0.3492    0.2474
O                     0.3838   -1.4537    0.1765
C                    -0.9105   -0.962    -0.0881
H                    -1.7021    1.0759   -0.0057
H                    -0.7669    0.6609   -1.5128
H                     0.9592    1.7384   -0.3361
H                     0.2572    1.2702    1.2783
H                     1.8688   -0.4137    1.1721
H                     1.9381   -0.3744   -0.6307
H                    -1.3579   -1.5217   -0.9371
H                    -1.544    -1.1184    0.812

