%nproc=32
%mem=180GB
%chk=CBS-4M.Frag_576.chk
#P CBS-4M

Frag_576

0 1
C                    -0.58789   1.19076  -0.95757
C                    -0.37546   0.196    -0.08755
N                    -1.26335  -0.84196   0.18857
C                     0.87179   0.13012   0.76282
O                     1.50176  -1.14933   0.68629
H                    -1.49251   1.2539   -1.55318
H                     0.13081   1.99295  -1.06315
H                    -0.78959  -1.69375   0.4599
H                    -1.96629  -1.00574  -0.51777
H                     1.55774   0.93893   0.48354
H                     0.61091   0.25236   1.82004
H                     1.80217  -1.26426  -0.22202

