%nproc=32
%mem=180GB
#P CBS-4M**

Frag_75

0 1
C                     1.524    -0.9041    0.0002
C                     0.4647   -0.0815    0.0001
C                     0.534     1.419     0.0001
N                    -0.7992   -0.747    -0.0001
N                    -1.7784    0.0394   -0.0003
H                     1.3716   -1.9777    0.0001
H                     2.541    -0.5273    0.0002
H                     0.0219    1.8308    0.8755
H                     1.5725    1.7565   -0.0001
H                     0.0217    1.8308   -0.8752
H                    -2.621    -0.5605    0.0009

