%nproc=32
%mem=180GB
%chk=CBS-4M.Frag_911.chk
#P CBS-4M

Frag_911

0 1
C                    -1.62312  -0.92653  -0.13787
C                    -0.54481   0.11662   0.15287
C                    -0.39189   1.08256  -1.03822
O                    -0.96357   0.83905   1.30459
C                     0.79604  -0.58437   0.50335
N                     1.73574   0.40482   1.01212
O                     1.29406  -1.40064  -0.54718
H                    -1.76875  -1.56776   0.73607
H                    -2.57344  -0.43155  -0.35692
H                    -1.3417   -1.55282  -0.98733
H                    -0.11187   0.56617  -1.9641
H                    -1.34728   1.58254  -1.21591
H                     0.34835   1.86319  -0.833
H                    -0.1512    1.20217   1.68666
H                     0.59482  -1.28083   1.32326
H                     2.08789   0.99011   0.25973
H                     2.53833  -0.05676   1.42674
H                     1.42241  -0.84616  -1.32475

