%nproc=32
%mem=180GB
#P CBS-4M**

Frag_195

0 1
N                    -2.1961    1.7618    0.1337
C                    -1.3519    0.9761    0.0383
C                    -0.2791   -0.0231   -0.0833
N                    -0.5911   -1.3119   -0.6897
C                     1.1226    0.4902   -0.3521
C                     0.7584   -0.0681    1.0222
H                    -0.9629   -1.1314   -1.6501
H                    -1.3644   -1.7465   -0.1362
H                     1.7715   -0.1844   -0.9506
H                     1.2379    1.5955   -0.3681
H                     0.661     0.7112    1.8086
H                     1.1942   -1.0693    1.2274

