%nproc=32
%mem=180GB
%chk=CBS-4M.Frag_885.chk
#P CBS-4M

Frag_885

0 1
C                     1.80956   0.08782   0.13647
C                     0.49176   0.82744  -0.10007
C                    -0.77694  -0.0525   -0.00119
N                    -0.88319  -0.61489   1.32166
N                    -0.8177   -1.18827  -0.92204
O                    -1.91772   0.77116  -0.24885
H                     2.65553   0.78134   0.1148
H                     1.79763  -0.41584   1.10637
H                     1.98756  -0.66969  -0.63413
H                     0.38593   1.64859   0.61956
H                     0.49938   1.29252  -1.09619
H                    -0.99863   0.13616   1.99505
H                    -1.72659  -1.18087   1.35099
H                    -0.05383  -1.82102  -0.70394
H                    -0.68073  -0.87073  -1.87745
H                    -1.77192   1.26877  -1.06115

