%nproc=32
%mem=180GB
#P OPT=calcfc Freq B3LYP**

Frag_164

0 1
C                     1.489    -0.4325    0.4278
N                     0.5265    0.6344    0.1825
C                    -0.8274    0.3849   -0.232
N                    -1.6334    1.3785   -0.4334
N                    -1.3068   -0.949    -0.4282
H                     1.6424   -1.0238   -0.4994
H                     2.463     0.0026    0.7361
H                     1.1222   -1.0928    1.2416
H                     0.8439    1.6214    0.3165
H                    -1.3298    2.3694   -0.3034
H                    -0.696    -1.7811   -0.2786
H                    -2.2935   -1.112    -0.7295

