%nproc=32
%mem=180GB
%chk=CBS-4M.Frag_492.chk
#P CBS-4M

Frag_492

0 1
C                     1.28644   0.33324   0.20448
O                     0.12164  -0.14451   0.85601
C                    -0.86301  -0.60065  -0.02612
O                    -1.42417   0.41723  -0.81657
H                     1.97927   0.65726   0.98395
H                     1.76288  -0.46102  -0.39018
H                     1.06193   1.17711  -0.45808
H                    -0.45268  -1.32689  -0.74304
H                    -1.61367  -1.08876   0.60907
H                    -1.85863   1.03689  -0.21952

