%nproc=32
%mem=180GB
#P CBS-4M**

Frag_236

0 1
C                    -1.1904   -0.3619    0.0996
C                     0.0257   -1.2898    0.1152
O                     1.1279   -0.625     0.6925
C                     1.5343    0.4665   -0.1283
O                     0.4728    1.1117   -0.8264
C                    -0.7099    1.0818   -0.058
H                    -1.8567   -0.6407   -0.7456
H                    -1.7617   -0.4595    1.0483
H                    -0.2079   -2.1939    0.7161
H                     0.2715   -1.6318   -0.9169
H                     2.0522    1.2148    0.5084
H                     2.2755    0.101    -0.8704
H                    -0.5406    1.55      0.9394
H                    -1.4927    1.6768   -0.5739

