%nproc=32
%mem=180GB
%chk=CBS-4M.Frag_1015.chk
#P CBS-4M

Frag_1015

0 1
C                    -1.47624   0.03558   0.04322
C                    -0.21818   0.42252  -0.07511
N                     0.87019  -0.5609   -0.02838
N                     2.08003  -0.17767  -0.14323
O                     0.55324  -1.74619   0.12472
H                    -1.7064   -1.01422   0.17562
H                    -2.28123   0.75905   0.00909
H                     0.11584   1.4432   -0.21037
H                     2.06276   0.83853  -0.25707

