%nproc=32
%mem=180GB
#P CBS-4M**

Frag_9

0 1
C                     1.234     1.3714    0.
C                     0.0474    0.7397    0.
C                    -1.234     1.543     0.
C                    -0.0474   -0.7397    0.
C                    -1.234    -1.3714    0.
C                     1.234    -1.543     0.
H                     2.1804    0.8427   -0.0001
H                     1.2906    2.4555    0.
H                    -1.8465    1.3196   -0.881
H                    -1.0211    2.6145    0.0001
H                    -1.8465    1.3195    0.881
H                    -1.2906   -2.4555    0.
H                    -2.1804   -0.8427   -0.0001
H                     1.8465   -1.3195    0.881
H                     1.0211   -2.6145    0.0001
H                     1.8465   -1.3196   -0.881

