%nproc=32
%mem=180GB
#P CBS-4M**

Frag_179

0 1
O                     1.9077    0.761    -0.5651
C                     1.1314   -0.0709    0.2511
C                    -0.152    -0.4775   -0.4907
C                    -1.3574    0.2909   -0.1895
N                    -1.195    -1.0634    0.3788
H                     1.4631    1.6488   -0.5661
H                     1.7133   -0.9901    0.4706
H                     0.9248    0.4345    1.2229
H                    -0.0988   -0.9747   -1.4823
H                    -2.1232    0.3067   -0.9927
H                    -1.2796    1.0952    0.5758
H                    -0.9343   -0.9606    1.3871

