%nproc=32
%mem=180GB
%chk=CBS-4M.Frag_784.chk
#P CBS-4M

Frag_784

0 1
C                    -0.19529   1.33963  -0.22209
C                     0.0008   -0.1699   -0.07698
C                    -1.27751  -0.97104  -0.28748
O                     0.96073  -0.65359  -0.97975
O                     0.37383  -0.49441   1.27469
O                     1.67312   0.08724   1.52744
H                    -0.48096   1.583    -1.24876
H                     0.73107   1.86568   0.02334
H                    -0.97518   1.69129   0.45798
H                    -1.05377  -2.03831  -0.23358
H                    -1.69268  -0.7452   -1.27211
H                    -2.01451  -0.719     0.4778
H                     1.72492  -0.07015  -0.91186
H                     2.22552  -0.70533   1.47147

