%nproc=32
%mem=180GB
%chk=CBS-4M.Frag_770.chk
#P CBS-4M

Frag_770

0 1
C                     1.99517  -0.7114   -0.23465
C                     0.7741   -0.0901   -0.8735
O                     0.67174   0.04148  -2.07268
C                    -0.38872   0.35163   0.05727
C                    -1.27523  -0.89602   0.26915
N                     0.15182   0.75446   1.35709
N                    -1.08347   1.44575  -0.62055
H                     2.57983   0.07047   0.26112
H                     2.60219  -1.18962  -1.00457
H                     1.72233  -1.42169   0.54924
H                    -2.1413   -0.62349   0.8847
H                    -1.64113  -1.26895  -0.69056
H                    -0.73964  -1.69988   0.78234
H                    -0.59817   0.7686    2.04319
H                     0.46556   1.71855   1.27389
H                    -2.06396   1.464    -0.35737
H                    -1.03112   1.28631  -1.6239

