%nproc=32
%mem=180GB
#P CBS-4M**

Frag_206

0 1
C                    -1.0342    0.8169   -0.4543
C                    -0.1654   -0.1274    0.3906
N                    -0.744    -1.4722    0.4273
C                     1.2717   -0.1994   -0.15
O                     1.8948    1.0555   -0.0856
H                    -0.6217    1.8478   -0.428
H                    -2.0672    0.8488   -0.0475
H                    -1.0759    0.4727   -1.5099
H                    -0.1284    0.2665    1.4307
H                    -1.6837   -1.4212    0.8843
H                    -0.8902   -1.8144   -0.5509
H                     1.2603   -0.5383   -1.2083
H                     1.8585   -0.9451    0.4339
H                     2.1255    1.2098    0.8676

