%nproc=32
%mem=180GB
%chk=CBS-4M.Frag_857.chk
#P CBS-4M

Frag_857

0 1
C                    -1.31175  -1.03637   0.37196
C                    -0.20946  -0.04895  -0.03925
C                    -0.58251   1.38104   0.36203
N                     0.04497  -0.07901  -1.50003
N                     1.00066  -0.45641   0.68717
N                     2.1034    0.39247   0.35116
H                    -2.24932  -0.79477  -0.13732
H                    -1.03656  -2.06268   0.09651
H                    -1.48033  -1.01293   1.45199
H                    -0.68212   1.44775   1.44778
H                     0.19623   2.07607   0.04619
H                    -1.5354    1.66937  -0.09425
H                    -0.56994   0.56673  -1.98511
H                    -0.16159  -1.00269  -1.8712
H                     1.1997   -1.4209    0.41287
H                     2.85346   0.17889   0.99849
H                     2.42047   0.20239  -0.59888

