%nproc=32
%mem=180GB
%chk=CBS-4M.Frag_967.chk
#P CBS-4M

Frag_967

0 1
C                    -1.10595  -0.31347  -0.276
C                    -0.01578   0.65721   0.15707
O                     1.24086   0.40894  -0.46022
O                     1.72109  -0.86264   0.03589
H                    -2.05876  -0.04508   0.19205
H                    -0.8493   -1.33239   0.02225
H                    -1.23232  -0.28969  -1.36214
H                     0.10143   0.66095   1.25007
H                    -0.24532   1.68053  -0.16478
H                     2.44406  -0.56436   0.60591

