%nproc=32
%mem=180GB
%chk=CBS-4M.Frag_441.chk
#P CBS-4M

Frag_441

0 1
C                     0.06722  -0.37958   1.46213
C                    -0.25897  -0.06234  -0.01259
C                    -1.53061  -0.8142   -0.43192
C                    -0.47497   1.45605  -0.18969
C                     0.90163  -0.52708  -0.92229
N                     2.12649   0.01452  -0.64582
O                     0.75511  -1.32744  -1.82635
H                     0.25858  -1.44787   1.60332
H                     0.94415   0.16695   1.82379
H                    -0.77858  -0.10165   2.09992
H                    -1.7757   -0.6177   -1.47798
H                    -1.40137  -1.8939   -0.32625
H                    -2.37424  -0.50009   0.1916
H                     0.39479   2.04117   0.12694
H                    -0.68343   1.70541  -1.2348
H                    -1.32858   1.78566   0.41199
H                     2.89235  -0.22597  -1.25302
H                     2.26613   0.72794   0.04613

