%nproc=32
%mem=180GB
%chk=CBS-4M.Frag_905.chk
#P CBS-4M

Frag_905

0 1
C                    -1.35189   0.06807   0.18406
C                    -0.00117   0.3006   -0.47547
N                     1.04771  -0.62016   0.10761
N                     2.16248  -0.18395   0.52949
O                     0.73927  -1.81649   0.12051
H                    -2.10756   0.6892   -0.30439
H                    -1.63421  -0.98094   0.08879
H                    -1.32299   0.33069   1.24532
H                     0.34634   1.3289   -0.35727
H                    -0.03239   0.05418  -1.53992
H                     2.15431   0.82981   0.40125

