%nproc=32
%mem=180GB
#P OPT=calcfc Freq B3LYP**

Frag_421

0 1
C                    -1.9309    0.4588    0.7144
N                    -0.8924   -0.318     0.6342
O                    -0.9088   -1.5092    1.3257
N                     0.2405    0.0266   -0.137
C                     1.3836   -0.8852   -0.1928
N                     0.2815    1.2381   -0.8526
H                    -2.7848    0.1679    1.3136
H                    -1.9752    1.4062    0.1936
H                     1.0621   -1.8621   -0.6106
H                     1.7908   -1.0366    0.8287
H                     2.1874   -0.4704   -0.8377
H                     1.1128    1.777    -0.5186
H                     0.4332    1.0071   -1.8609

