%nproc=32
%mem=180GB
#P OPT=calcfc Freq B3LYP**

Frag_398

0 1
C                    -0.1436    1.138    -0.7606
C                    -0.1804   -0.1579    0.084
C                    -1.455    -0.9382   -0.27
N                    -0.2085    0.1537    1.5235
O                     0.9164   -1.0041   -0.2231
N                     2.066    -0.3573    0.1085
H                     0.7268    1.7701   -0.4847
H                    -1.0643    1.738    -0.5953
H                    -0.0689    0.8904   -1.8412
H                    -1.4507   -1.2206   -1.345
H                    -2.3635   -0.3308   -0.0666
H                    -1.5118   -1.8685    0.3351
H                    -1.077     0.6954    1.7424
H                     0.5902    0.7826    1.7689
H                     2.575    -0.9737    0.7812
H                     2.6494   -0.3172   -0.7573

