%nproc=32
%mem=180GB
%chk=CBS-4M.Frag_873.chk
#P CBS-4M

Frag_873

0 1
N                     2.40677  -0.46822   0.39668
C                     1.35936  -0.05352   0.1407
C                     0.03653   0.51912  -0.20193
N                    -0.98335  -0.33839   0.04714
O                    -0.06995   1.63533  -0.65197
H                    -1.92319  -0.03662  -0.15464
H                    -0.82618  -1.25771   0.42401

