%nproc=32
%mem=180GB
%chk=CBS-4M.Frag_463.chk
#P CBS-4M

Frag_463

0 1
C                    -0.28879  -1.64349   0.29203
C                     0.43141  -0.33101   0.14992
C                     1.89803  -0.20182   0.3974
N                    -0.1812    0.78733  -0.20109
C                    -1.62825   0.8053   -0.47626
N                     0.48368   1.93216  -0.31813
H                     0.4319   -2.4082    0.58883
H                    -0.7537   -1.99588  -0.63896
H                    -1.0728   -1.63666   1.06167
H                     2.09547   0.54258   1.18103
H                     2.33943  -1.15902   0.68155
H                     2.40885   0.19037  -0.49277
H                    -2.08324  -0.17436  -0.35412
H                    -1.77543   1.15057  -1.50238
H                    -2.0967    1.51347   0.21139
H                    -0.20869   2.62867  -0.59521

