%nproc=32
%mem=180GB
%chk=CBS-4M.Frag_991.chk
#P CBS-4M

Frag_991

0 1
N                    -1.18394  -0.55016   0.74669
C                    -0.70858  -0.01173  -0.288
O                    -1.44464   0.31158  -1.36336
O                     0.57094   0.3646   -0.58994
N                     1.46809   0.07062   0.48952
H                    -0.44474  -0.70335   1.42918
H                    -2.34653   0.04393  -1.14402
H                     2.1859   -0.49837   0.0422
H                     1.90351   0.97289   0.67773

