%nproc=32
%mem=180GB
%chk=CBS-4M.Frag_1119.chk
#P CBS-4M

Frag_1119

0 1
O                    -0.57787   1.24519  -0.07686
C                    -0.73231  -0.11342   0.18805
O                     0.10639  -0.94266  -0.58522
O                     1.45515  -0.69283  -0.11176
H                     0.23373   1.52654   0.35895
H                    -0.58104  -0.34249   1.25233
H                    -1.73826  -0.40699  -0.12833
H                     1.8341   -0.27345  -0.89717

