%nproc=32
%mem=180GB
%chk=CBS-4M.Frag_902.chk
#P CBS-4M

Frag_902

0 1
N                     1.51216  -0.28257  -0.38128
C                     0.34398   0.56054  -0.12779
O                     0.35287   0.98081   1.21772
C                    -0.92832  -0.27858  -0.36994
O                    -2.06448   0.45452  -0.07389
O                    -0.85914  -1.4135    0.47886
H                     1.61633  -0.45733  -1.37787
H                     2.34687   0.20754  -0.07344
H                     0.30506   1.48139  -0.72574
H                     0.22879   0.17187   1.7372
H                    -1.01539  -0.58107  -1.4245
H                    -1.87829   0.91718   0.75556
H                     0.03975  -1.76089   0.3652

