%nproc=32
%mem=180GB
#P CBS-4M**

Frag_57

0 1
C                     1.4357   -1.0784   -0.2175
C                     0.5668   -0.112     0.0957
C                     0.931     1.3502    0.0284
C                    -0.8508   -0.4403    0.5332
N                    -1.9272    0.031    -0.3521
H                     1.1618   -2.1287   -0.1592
H                     2.4507   -0.8581   -0.5377
H                     0.268     1.8958   -0.6545
H                     0.8272    1.8263    1.0125
H                     1.9583    1.4979   -0.3142
H                    -0.9539   -1.5257    0.6393
H                    -1.0385   -0.0092    1.5263
H                    -1.7406   -0.2806   -1.3033
H                    -1.9383    1.0477   -0.3834

