%nproc=32
%mem=180GB
%chk=CBS-4M.Frag_498.chk
#P CBS-4M

Frag_498

0 1
C                     1.92728  -1.05065   0.01973
N                     0.91474  -0.57256   0.60314
C                    -0.10564   0.08335  -0.20887
C                    -0.22463   1.54342   0.24282
C                    -1.42884  -0.67032  -0.03197
H                     2.0859   -1.00213  -1.06853
H                     2.70377  -1.54527   0.60582
H                     0.17414   0.06373  -1.27777
H                    -1.00223   2.05896  -0.32947
H                    -0.48214   1.59294   1.3052
H                     0.71988   2.0759    0.09744
H                    -2.22423  -0.18784  -0.60861
H                    -1.33718  -1.70616  -0.37168
H                    -1.72082  -0.68348   1.02254

