%nproc=32
%mem=180GB
%chk=CBS-4M.Frag_481.chk
#P CBS-4M

Frag_481

0 1
C                    -1.93269  -0.20278  -0.43586
O                    -0.61553  -0.70113  -0.20117
C                     0.38281   0.20363  -0.25831
C                     1.70491  -0.46982   0.00932
N                     0.14823   1.42657  -0.50801
H                    -2.59495  -1.06551  -0.35026
H                    -2.00822   0.24293  -1.4316
H                    -2.19715   0.55988   0.30191
H                     1.69337  -0.94366   0.99561
H                     2.52563   0.24776  -0.03333
H                     1.88075  -1.26055  -0.72634
H                     1.01283   1.96247  -0.51216

