%nproc=32
%mem=180GB
#P OPT=calcfc Freq B3LYP**

Frag_337

0 1
C                    -1.5931    0.933    -0.6154
C                    -0.6209   -0.1512   -0.2299
N                    -1.0541   -1.5156   -0.366
C                     0.6209    0.1512    0.2299
C                     1.5931   -0.933     0.6154
N                     1.0541    1.5156    0.366
H                    -1.812     1.5783    0.2616
H                    -1.1735    1.5454   -1.4413
H                    -2.5536    0.5021   -0.9672
H                    -2.0116   -1.733    -0.7209
H                    -0.4503   -2.3309   -0.1239
H                     1.812    -1.5783   -0.2616
H                     1.1735   -1.5454    1.4413
H                     2.5536   -0.5021    0.9672
H                     2.0116    1.733     0.7209
H                     0.4503    2.3309    0.1239

