%nproc=32
%mem=180GB
#P CBS-4M**

Frag_176

0 1
C                     1.3395   -0.7137    0.064
C                     0.4988    0.522    -0.0382
N                     1.0702    1.6835    0.0118
N                    -0.9278    0.4272   -0.1644
N                    -1.5713   -0.8206   -0.2029
H                     1.1271   -1.2291    1.0237
H                     1.1061   -1.3972   -0.7789
H                     2.4211   -0.4617    0.0248
H                     0.5209    2.5699   -0.0464
H                    -1.4934    1.3012   -0.2673
H                    -1.504    -1.2324    0.7555
H                    -2.5872   -0.6493   -0.3816

