%nproc=32
%mem=180GB
%chk=CBS-4M.Frag_744.chk
#P CBS-4M

Frag_744

0 1
C                     2.02795   0.21885   0.08457
C                     0.80622  -0.65448  -0.13816
N                    -0.47204   0.02974   0.3456
C                    -0.79106   1.21292  -0.52371
C                    -1.59439  -0.95976   0.24195
O                    -0.3446    0.42716   1.6284
H                     2.10782   1.02675  -0.6485
H                     2.93319  -0.38955   0.00716
H                     1.95454   0.64227   1.08848
H                     0.67721  -0.94788  -1.18642
H                     0.87081  -1.55328   0.47798
H                    -1.7171    1.63785  -0.13891
H                    -0.89779   0.9292   -1.57605
H                     0.01093   1.93602  -0.3939
H                    -1.72328  -1.32487  -0.78271
H                    -1.35459  -1.77624   0.92151
H                    -2.49374  -0.45501   0.59262

