%nproc=32
%mem=180GB
%chk=CBS-4M.Frag_1150.chk
#P CBS-4M

Frag_1150

0 1
C                     1.74857  -0.05148   0.80846
N                     0.66594  -0.64092   0.38535
O                     0.18693  -1.71936   0.78576
N                    -0.06018  -0.04212  -0.75041
C                    -1.50291  -0.20053  -0.56145
O                     0.2683    1.30514  -0.88764
H                     2.29019  -0.564     1.58711
H                     2.08028   0.85332   0.33363
H                    -1.72164  -1.25434  -0.41484
H                    -1.86868   0.37294   0.30624
H                    -1.97616   0.16621  -1.47241
H                    -0.11063   1.77514  -0.11991

