%nproc=32
%mem=180GB
%chk=CBS-4M.Frag_518.chk
#P CBS-4M

Frag_518

0 1
C                     1.65189  -0.85077   1.26033
N                     1.17353  -0.79398   0.09314
C                    -0.05414  -0.03744  -0.20338
C                    -1.03554  -1.05841  -0.81001
C                    -0.70848   0.6723    0.99245
C                     0.34293   0.99602  -1.27475
H                     2.56536  -1.42645   1.42393
H                     1.22576  -0.36448   2.14563
H                    -1.3298   -1.80383  -0.06435
H                    -0.56775  -1.58291  -1.64706
H                    -1.93974  -0.55674  -1.1693
H                    -1.0102   -0.03644   1.77073
H                    -0.0382    1.41172   1.4431
H                    -1.60764   1.20122   0.66275
H                     0.82956   0.49979  -2.11827
H                    -0.54      1.52947  -1.64109
H                     1.04235   1.73112  -0.86405

