%nproc=32
%mem=180GB
%chk=CBS-4M.Frag_559.chk
#P CBS-4M

Frag_559

0 1
C                    -0.96614   0.31563   0.96065
C                    -0.4743    0.51103  -0.45412
N                    -0.89247   1.39123  -1.27245
C                     0.59788  -0.45362  -0.93412
N                     1.64521  -0.66931   0.07549
H                    -1.75598   1.02828   1.21094
H                    -0.13604   0.44146   1.66343
H                    -1.35634  -0.70039   1.10275
H                    -1.63449   1.95427  -0.84711
H                     1.04598  -0.01708  -1.82894
H                     0.09453  -1.38568  -1.2498
H                     1.35595  -1.38013   0.7402
H                     2.47611  -1.03578  -0.37644

