%nproc=32
%mem=180GB
%chk=CBS-4M.Frag_680.chk
#P CBS-4M

Frag_680

0 1
C                    -0.72637   1.20552  -0.30806
C                    -0.09501  -0.17842  -0.12016
N                    -0.9579   -1.17298   0.47165
O                     0.32761  -0.61779  -1.42084
C                     1.15467  -0.03973   0.79121
O                     1.08137   0.02908   1.98979
O                     2.30593   0.02762   0.11738
H                    -0.98789   1.62953   0.66399
H                    -1.62758   1.11024  -0.92146
H                    -0.03826   1.886    -0.81716
H                    -0.81566  -1.18395   1.47718
H                    -1.93487  -0.97201   0.28701
H                     0.24191  -1.58011  -1.39469
H                     2.07216  -0.14302  -0.81574

