%nproc=32
%mem=180GB
%chk=CBS-4M.Frag_1083.chk
#P CBS-4M

Frag_1083

0 1
C                    -1.40688   0.97149   0.00814
C                    -0.742    -0.17649  -0.21163
O                    -1.26716  -1.2357   -0.87491
N                     0.54415  -0.46125   0.26582
N                     1.27797   0.61878   0.80744
N                     1.31008  -1.31826  -0.55231
H                    -2.43314   1.07275  -0.3222
H                    -0.98491   1.79341   0.5625
H                    -2.16979  -1.00518  -1.11827
H                     1.11701   1.46155   0.24881
H                     0.9223    0.80592   1.74099
H                     1.98225  -1.77066   0.05926
H                     1.85013  -0.75626  -1.21371

