%nproc=32
%mem=180GB
#P CBS-4M**

Frag_155

0 1
C                    -1.2289   -1.1169   -0.3569
C                    -1.6056    0.1536   -0.5325
C                    -1.0795    1.2881    0.2459
C                     0.202     1.6683    0.2473
C                     1.2632    1.0046   -0.5294
C                     1.6399   -0.2659   -0.3538
C                     1.0452   -1.1758    0.6404
C                    -0.2363   -1.556     0.639
H                    -1.7899   -1.8882   -0.8695
H                    -2.4527    0.3473   -1.1784
H                    -1.8021    1.9372    0.7243
H                     0.4528    2.6061    0.7268
H                     1.869     1.6293   -1.1737
H                     2.5318   -0.6062   -0.8648
H                     1.7231   -1.6783    1.3189
H                    -0.5318   -2.3472    1.3164

