%nproc=32
%mem=180GB
#P OPT=calcfc Freq B3LYP**

Frag_214

0 1
C                    -1.0676   -1.4497   -0.1828
C                    -0.4613   -0.2826    0.0402
N                    -1.1928    0.7972    0.6333
N                     0.9188   -0.1156   -0.3151
N                     1.5784    1.1013   -0.0908
H                    -0.5314   -2.2772   -0.63
H                    -2.1083   -1.5931    0.079
H                    -2.198     0.6868    0.8959
H                    -0.7385    1.7186    0.8166
H                     1.4487   -0.9072   -0.748
H                     2.4047    0.896     0.515
H                     1.9473    1.4255   -1.0133

