%nproc=32
%mem=180GB
%chk=CBS-4M.Frag_1114.chk
#P CBS-4M

Frag_1114

0 1
C                     1.51145  -1.09374  -0.22028
C                     0.77142  -0.03057   0.12334
O                     1.20501   1.26059   0.08706
N                    -0.54659  -0.07733   0.58995
C                    -1.46923   0.96363   0.15256
O                    -1.11784  -1.34759   0.42091
H                     1.1337   -2.09721  -0.1138
H                     2.54215  -0.96331  -0.52567
H                     2.14018   1.25341  -0.13998
H                    -1.04481   1.93865   0.3885
H                    -2.40416   0.83005   0.69836
H                    -1.67353   0.91371  -0.92988
H                    -1.04765  -1.55039  -0.53119

