%nproc=32
%mem=180GB
#P CBS-4M**

Frag_116

0 1
C                    -0.2156   -0.918     0.1043
C                     1.037    -0.0699    0.0333
N                     0.2961    1.1423   -0.3156
C                    -0.9392    0.3605   -0.2631
H                    -0.2646   -1.6916   -0.6925
H                    -0.4461   -1.2672    1.1341
H                     1.5565    0.015     1.0155
H                     1.7114   -0.376    -0.7961
H                     0.3136    1.7899    0.5081
H                    -1.6317    0.7093    0.5373
H                    -1.4175    0.3055   -1.2655

