%nproc=32
%mem=180GB
%chk=CBS-4M.Frag_592.chk
#P CBS-4M

Frag_592

0 1
C                    -1.38725  -0.94949   0.02037
C                    -0.33378   0.04367  -0.46187
N                    -0.56709   1.36353   0.14339
C                     1.07787  -0.3726   -0.01638
O                     1.97084   0.49533  -0.69811
O                     1.22166  -0.27199   1.36899
H                    -1.21357  -1.93884  -0.41327
H                    -2.39152  -0.62768  -0.2751
H                    -1.3562   -1.03967   1.10956
H                    -0.33351   0.07159  -1.56202
H                     0.02773   2.0488   -0.31134
H                    -1.5303    1.65357   0.01654
H                     1.28564  -1.4197   -0.27869
H                     2.81785   0.4197   -0.24509
H                     0.71164   0.52379   1.60291

