%nproc=32
%mem=180GB
#P OPT=calcfc Freq B3LYP**

Frag_348

0 1
C                    -1.7248    0.4194   -0.0024
C                    -0.6352   -0.6485    0.0086
C                     0.7135   -0.0446    0.3135
C                     1.7661    0.008    -0.7535
N                     0.9879    0.384     1.4951
H                    -2.6995   -0.0477   -0.2568
H                    -1.8127    0.8978    0.9961
H                    -1.4935    1.1961   -0.7624
H                    -0.877    -1.4224    0.7687
H                    -0.6141   -1.1451   -0.9858
H                     1.3694    0.5428   -1.6419
H                     2.0507   -1.0243   -1.0461
H                     2.6717    0.5411   -0.3926
H                     0.2974    0.3433    2.2594

