%nproc=32
%mem=180GB
#P OPT=calcfc Freq B3LYP**

Frag_355

0 1
C                     1.2684   -0.6679    0.7592
N                     0.2472   -0.853    -0.2649
C                    -0.6625    0.0222   -0.5832
N                    -0.7469    1.2948    0.0678
O                    -1.5807   -0.2833   -1.5833
H                     1.9013   -1.5776    0.8089
H                     1.9134    0.1995    0.5038
H                     0.7922   -0.5125    1.7506
H                    -0.0886    1.5828    0.8243
H                    -1.4915    1.9687   -0.2169
H                    -1.5523   -1.1737   -2.0663

