%nproc=32
%mem=180GB
%chk=CBS-4M.Frag_641.chk
#P CBS-4M

Frag_641

0 1
C                    -1.15572  -0.46362  -0.5779
C                     0.06146   0.33819  -0.08334
C                     0.91104  -0.47235   0.91178
O                    -0.34608   1.57762   0.48929
C                     0.90096   0.70241  -1.24593
N                     1.56278   0.938    -2.16234
H                    -0.84718  -1.37877  -1.09026
H                    -1.77665  -0.74342   0.28024
H                    -1.7521    0.14323  -1.26222
H                     1.75224   0.12838   1.26352
H                     0.29176  -0.75208   1.77114
H                     1.29438  -1.38786   0.45343
H                    -0.897     1.37036   1.2526

