%nproc=32
%mem=180GB
%chk=CBS-4M.Frag_475.chk
#P CBS-4M

Frag_475

0 1
C                    -1.03601  -0.44152   0.55412
C                    -0.19902  -0.06427  -0.67935
C                     0.96901   0.86002  -0.36247
O                     1.10903   1.96127  -0.81328
O                     1.89464   0.35915   0.50094
H                    -1.87809  -1.07427   0.26159
H                    -0.45519  -0.99685   1.2989
H                    -1.43561   0.45074   1.04432
H                     0.19321  -0.97197  -1.15643
H                    -0.81499   0.45291  -1.4169
H                     1.65302  -0.53532   0.76854

