%nproc=32
%mem=180GB
#P OPT=calcfc Freq B3LYP**

Frag_292

0 1
C                     1.9862   -0.2516   -0.5018
C                     0.8924    0.2503    0.4632
N                     0.9902    1.7066    0.6233
C                    -0.5688   -0.1768    0.0749
C                    -0.6849   -1.717     0.0092
C                    -1.0068    0.4116   -1.2859
C                    -1.5469    0.3249    1.1622
H                     2.9811    0.0906   -0.1458
H                     1.8377    0.1448   -1.5267
H                     2.0152   -1.3595   -0.533
H                     1.1169   -0.2098    1.4531
H                     1.0642    2.1623   -0.3152
H                     1.8737    1.928     1.138
H                    -0.1146   -2.1287   -0.8496
H                    -1.7442   -2.0268   -0.1245
H                    -0.3045   -2.1806    0.9449
H                    -0.368     0.0386   -2.1126
H                    -0.9685    1.5208   -1.2764
H                    -2.053     0.1148   -1.5165
H                    -2.5869    0.0002    0.9406
H                    -1.5461    1.4344    1.2195
H                    -1.2646   -0.0771    2.1593

