%nproc=32
%mem=180GB
%chk=CBS-4M.Frag_847.chk
#P CBS-4M

Frag_847

0 1
C                    -1.17581  -0.5607   -0.06053
C                    -0.17143   0.54969   0.03274
N                    -0.33438   1.77878   0.22843
N                     1.27094   0.13164  -0.1346
N                     1.42798  -1.11644  -0.33329
O                     2.14318   0.99869  -0.06778
H                    -1.11192  -1.06253  -1.02856
H                    -0.98586  -1.32178   0.69952
H                    -2.17923  -0.1507    0.07421
H                    -1.32621   1.99615   0.33294
H                     2.44274  -1.24279  -0.42589

