%nproc=32
%mem=180GB
%chk=CBS-4M.Frag_584.chk
#P CBS-4M

Frag_584

0 1
C                    -1.57607  -0.19379  -0.49191
N                    -0.34317   0.52016  -0.82272
C                     0.81452   0.06763  -0.08573
O                     1.90584   0.88709  -0.41734
O                     1.21093  -1.25774  -0.31629
H                    -2.39423   0.19775  -1.102
H                    -1.82804  -0.01171   0.55833
H                    -1.50911  -1.28078  -0.64151
H                    -0.14257   0.42923  -1.81607
H                     0.56386   0.11031   0.9849
H                     1.55223   1.77823  -0.51905
H                     1.7459   -1.24638  -1.12011

