%nproc=32
%mem=180GB
%chk=CBS-4M.Frag_659.chk
#P CBS-4M

Frag_659

0 1
C                    -1.38184   0.77933   0.55953
C                    -0.47465   0.13839  -0.49416
N                    -0.98702  -1.11892  -1.05969
C                     0.94625  -0.19566   0.03973
N                     1.62291   0.98981   0.51267
O                     1.67294  -0.82909  -0.9663
O                     0.8468   -1.1058    1.12948
H                    -0.9403    1.69606   0.95946
H                    -1.54864   0.0872    1.39231
H                    -2.35794   1.02405   0.12806
H                    -0.34244   0.83395  -1.33291
H                    -1.17713  -1.76422  -0.29699
H                    -1.85996  -0.96342  -1.55203
H                     1.69552   1.66113  -0.24724
H                     2.57602   0.72017   0.74628
H                     1.02366  -1.38286  -1.43261
H                     0.68591  -0.57013   1.91439

