%nproc=32
%mem=180GB
%chk=CBS-4M.Frag_942.chk
#P CBS-4M

Frag_942

0 1
C                    -0.9176   -1.11681  -0.95899
C                    -0.55164   0.08118  -0.05972
C                    -1.41266   0.02359   1.21569
C                    -0.85613   1.39217  -0.80997
C                     0.96396   0.03027   0.352
N                     1.81344   0.26774  -0.82187
N                     1.23539  -1.20059   1.0971
O                     1.27687   1.05568   1.27935
H                    -1.9852   -1.08662  -1.20025
H                    -0.38075  -1.11241  -1.91494
H                    -0.72598  -2.06935  -0.45608
H                    -1.16599   0.85092   1.88477
H                    -2.47388   0.09393   0.95382
H                    -1.24448  -0.90838   1.75838
H                    -1.91954   1.4367   -1.06771
H                    -0.63813   2.2645   -0.1853
H                    -0.27609   1.48443  -1.73126
H                     1.55718  -0.34244  -1.59087
H                     2.77468   0.04808  -0.57459
H                     2.08962  -1.0623    1.62869
H                     1.39108  -1.96996   0.45573
H                     1.44594   1.83958   0.74613

