%nproc=32
%mem=180GB
%chk=CBS-4M.Frag_600.chk
#P CBS-4M

Frag_600

0 1
C                     1.53075  -0.21567  -0.39447
C                     0.36708   0.55283   0.15884
O                     0.44311   1.67592   0.61798
C                    -1.00376  -0.10319   0.15572
N                    -1.15949  -1.27377  -0.30579
O                    -1.95647   0.68482   0.67644
H                     2.43856   0.38341  -0.32172
H                     1.64489  -1.15762   0.15012
H                     1.33171  -0.49062  -1.4345
H                    -2.13689  -1.56557  -0.23438
H                    -1.49949   1.50936   0.93196

