%nproc=32
%mem=180GB
%chk=CBS-4M.Frag_946.chk
#P CBS-4M

Frag_946

0 1
N                     1.69054  -0.24947   0.12665
C                     0.48448   0.55915   0.01819
C                    -0.64751  -0.27407  -0.58463
O                    -1.80174   0.49749  -0.79685
O                    -0.90216  -1.42245   0.20242
H                     1.47551  -1.08618   0.6601
H                     2.41847   0.25312   0.62229
H                     0.11131   0.96884   0.98289
H                     0.67776   1.41556  -0.63748
H                    -0.34739  -0.66888  -1.55897
H                    -1.8838    1.13249  -0.07589
H                    -1.27545  -1.1256    1.04129

