%nproc=32
%mem=180GB
%chk=CBS-4M.Frag_567.chk
#P CBS-4M

Frag_567

0 1
N                     1.05386  -0.86405  -1.47924
C                     0.48131  -0.12472  -0.61944
N                     0.96321   1.14015  -0.29544
C                    -0.72087  -0.61098   0.18717
N                    -0.9866    0.10896   1.31945
O                    -1.37743  -1.56266  -0.18065
H                     0.56865  -1.76346  -1.50183
H                     0.25235   1.84909  -0.17435
H                     1.69909   1.43671  -0.92453
H                    -1.68267  -0.27303   1.94188
H                    -0.2508    0.66387   1.72698

