%nproc=32
%mem=180GB
%chk=CBS-4M.Frag_1128.chk
#P CBS-4M

Frag_1128

0 1
N                     0.77274   1.05419   0.36622
C                     0.55828  -0.13525  -0.05
O                     1.45758  -1.07793  -0.47245
N                    -0.71058  -0.66214  -0.1169
N                    -1.82359   0.19469   0.02655
H                     1.76555   1.27814   0.40618
H                     2.34297  -0.69388  -0.43672
H                    -0.84389  -1.39193  -0.80309
H                    -1.97457   0.31597   1.02699
H                    -1.54449   1.11824  -0.31168

