%nproc=32
%mem=180GB
%chk=CBS-4M.Frag_845.chk
#P CBS-4M

Frag_845

0 1
C                     2.15655  -0.36844  -0.53237
C                     1.15495   0.06877  -0.02782
C                    -0.06294   0.59002   0.57697
C                    -1.3365   -0.13202   0.19333
O                    -0.03494   1.53666   1.33163
H                     3.05016  -0.74219  -0.97044
H                    -1.26626  -1.18934   0.47084
H                    -1.47533  -0.09611  -0.89264
H                    -2.18569   0.33264   0.6961

