%nproc=32
%mem=180GB
#P CBS-4M**

Frag_198

0 1
C                     1.4482   -0.0934    0.1651
C                     0.0825   -0.3792   -0.4596
C                    -0.9015    0.7795   -0.4274
C                    -1.085    -0.4016    0.5143
H                     1.384     0.6045    1.0281
H                     1.896    -1.0475    0.5125
H                     2.1133    0.3524   -0.6033
H                    -0.0041   -1.0614   -1.332
H                    -0.5531    1.7074    0.0749
H                    -1.6214    0.7958   -1.2728
H                    -1.9132   -1.0823    0.2247
H                    -0.8456   -0.1742    1.5753

