%nproc=32
%mem=180GB
%chk=CBS-4M.Frag_953.chk
#P CBS-4M

Frag_953

0 1
N                    -1.25006  -0.53759   0.00478
C                    -0.36307   0.58152  -0.07103
O                     0.92131   0.33878  -0.65897
O                     1.622    -0.56238   0.23111
H                    -1.3674   -0.95723  -0.91241
H                    -0.85511  -1.24647   0.61408
H                    -0.77668   1.35063  -0.73342
H                    -0.22314   0.99793   0.93373
H                     2.29216   0.03501   0.59223

