%nproc=32
%mem=180GB
%chk=CBS-4M.Frag_530.chk
#P CBS-4M

Frag_530

0 1
N                    -1.71113   0.38375   0.30224
C                    -0.65826  -0.07343  -0.39995
O                    -0.68147  -0.5506   -1.52131
C                     0.65826   0.07343   0.39995
N                     1.71113  -0.38375  -0.30224
O                     0.68147   0.5506    1.52131
H                    -2.63712   0.35409  -0.08818
H                    -1.53799   0.75292   1.22454
H                     1.53799  -0.75292  -1.22454
H                     2.63712  -0.35409   0.08818

