%nproc=32
%mem=180GB
%chk=CBS-4M.Frag_566.chk
#P CBS-4M

Frag_566

0 1
N                    -0.66576   1.12513   1.35686
C                    -0.35309   0.33248   0.40855
N                    -1.18254  -0.38965  -0.41704
C                     1.13127   0.18964   0.10151
O                     2.01054   0.83523   0.59279
O                     1.35391  -0.79159  -0.81455
H                    -1.6788    1.15667   1.49226
H                    -2.14404  -0.49992  -0.13817
H                    -0.78331  -1.13737  -0.95929
H                     2.31191  -0.82052  -0.95292

