%nproc=32
%mem=180GB
%chk=CBS-4M.Frag_835.chk
#P CBS-4M

Frag_835

0 1
C                    -1.42436  -0.8419    0.74318
C                    -0.63977   0.04722  -0.24094
C                    -1.27284   1.45377  -0.24451
C                    -0.78968  -0.54556  -1.65878
C                     0.8878    0.14638   0.17543
C                     1.52841  -1.24003   0.39315
N                     1.59388   0.91946  -0.86076
N                     1.12837   0.90538   1.40947
H                    -2.49646  -0.78342   0.52719
H                    -1.28883  -0.52118   1.78195
H                    -1.13551  -1.89447   0.67355
H                    -1.37785   1.85499   0.76874
H                    -2.2774    1.4141   -0.67866
H                    -0.66854   2.14857  -0.83242
H                    -0.3577    0.11367  -2.4172
H                    -1.85051  -0.66747  -1.90327
H                    -0.32339  -1.53173  -1.74955
H                     1.44137  -1.87097  -0.49564
H                     1.08175  -1.78235   1.23252
H                     2.58976  -1.10258   0.6167
H                     1.71431   0.35687  -1.69677
H                     2.52493   1.11997  -0.50537
H                     0.7404    1.83867   1.31748
H                     0.67197   0.46262   2.19983

