%nproc=32
%mem=180GB
%chk=CBS-4M.Frag_866.chk
#P CBS-4M

Frag_866

0 1
C                    -0.97643   0.98539  -0.87214
C                    -0.24021   0.0247    0.05898
N                    -0.64079  -1.35807  -0.27984
N                    -0.54949   0.3494    1.44395
C                     1.27839   0.17656  -0.12553
O                     1.83823   0.76252  -1.01417
O                     1.95622  -0.52295   0.82394
H                    -0.70198   0.80781  -1.91436
H                    -0.7257    2.01652  -0.62048
H                    -2.05387   0.83795  -0.75924
H                    -0.05797  -2.01834   0.22829
H                    -0.49845  -1.54029  -1.27068
H                     0.00163  -0.23252   2.06722
H                    -1.52666   0.12337   1.61086
H                     2.89728  -0.41203   0.62329

