%nproc=32
%mem=180GB
#P OPT=calcfc Freq B3LYP**

Frag_298

0 1
C                     2.1304   -0.315     0.2125
C                     0.8018   -0.7606   -0.4065
C                    -0.4284    0.0599    0.0712
C                    -1.7006   -0.5328   -0.5723
C                    -0.2975    1.5363   -0.3549
N                    -0.535    -0.011     1.5353
H                     2.074    -0.3223    1.3211
H                     2.933    -1.0162   -0.0992
H                     2.4098    0.6993   -0.1396
H                     0.8905   -0.6986   -1.5136
H                     0.6495   -1.8324   -0.1502
H                    -1.6409   -0.4779   -1.6809
H                    -2.6037    0.0245   -0.2426
H                    -1.8271   -1.5976   -0.2806
H                    -0.1063    1.6158   -1.4468
H                     0.53      2.0346    0.192
H                    -1.2307    2.0931   -0.1222
H                    -0.6614   -1.008     1.8274
H                    -1.3874    0.5087    1.8498

