%nproc=32
%mem=180GB
%chk=CBS-4M.Frag_513.chk
#P CBS-4M

Frag_513

0 1
C                    -1.29082  -1.03659   0.27622
C                    -0.90639   0.26643  -0.44344
O                    -1.72093   1.32525  -0.01731
N                     0.50467   0.66154  -0.29339
C                     1.46765  -0.2624   -0.86309
N                     0.75639   0.98254   1.07227
H                    -0.71808  -1.89432  -0.09232
H                    -2.35245  -1.23776   0.11247
H                    -1.12878  -0.94311   1.355
H                    -1.07225   0.14933  -1.52139
H                    -1.32628   1.60729   0.82128
H                     1.18165  -0.49696  -1.89354
H                     1.55627  -1.21429  -0.3067
H                     2.45648   0.20794  -0.88459
H                     1.12811   0.17599   1.581
H                     1.46474   1.70921   1.09752

