%nproc=32
%mem=180GB
#P CBS-4M**

Frag_105

0 1
C                     1.5432   -0.9196    0.
C                     0.4901   -0.089     0.
C                     0.6311    1.4116    0.
C                    -0.8707   -0.6703    0.
N                    -1.9953   -0.0644    0.
H                     2.5654   -0.5538    0.
H                     1.4091   -1.9979    0.
H                     1.6821    1.7088    0.
H                     0.1537    1.8555    0.8819
H                     0.1537    1.8555   -0.8819
H                    -0.9014   -1.766     0.
H                    -1.858     0.9529    0.

