%nproc=32
%mem=180GB
#P OPT=calcfc Freq B3LYP**

Frag_371

0 1
N                     0.4302    1.1676    0.8425
C                     0.5525    0.1245    0.0819
N                     1.8394   -0.4602   -0.1034
O                    -0.5516   -0.4409   -0.5677
N                    -1.8321    0.0429   -0.3996
H                    -0.4852    1.6397    1.011
H                     2.6806   -0.0585    0.3675
H                     1.9504   -1.2992   -0.7146
H                    -2.146    -0.2407    0.5564
H                    -2.4382   -0.4753   -1.0741

