%nproc=32
%mem=180GB
%chk=CBS-4M.Frag_979.chk
#P CBS-4M

Frag_979

0 1
C                     1.09232  -1.51325   0.255
N                     0.83821  -0.07724   0.29167
C                     1.79131   0.61974  -0.57253
C                    -0.56115   0.2976    0.03806
C                    -1.50668  -0.51797   0.93913
N                    -0.9494    0.05125  -1.35667
N                    -0.63583   1.74144   0.33162
H                     0.55283  -2.03086   1.05118
H                     0.82185  -1.97259  -0.71018
H                     2.16019  -1.68042   0.42463
H                     2.80271   0.46243  -0.18383
H                     1.57879   1.68864  -0.57091
H                     1.77455   0.25661  -1.61531
H                    -1.58841  -1.56029   0.62267
H                    -1.15942  -0.48663   1.97501
H                    -2.50841  -0.07709   0.90008
H                    -0.6162    0.819    -1.93221
H                    -1.96019   0.03376  -1.44874
H                    -1.60318   2.04608   0.27469
H                    -0.32379   1.8998    1.28662

