%nproc=32
%mem=180GB
%chk=CBS-4M.Frag_732.chk
#P CBS-4M

Frag_732

0 1
C                     1.77519   0.9465   -0.98744
N                     1.26632   0.27064  -0.00179
O                     1.91229  -0.16652   0.99624
C                    -0.25022  -0.06891   0.02724
C                    -0.31901  -1.59778   0.06647
C                    -0.7801    0.56814   1.31455
N                    -0.90613   0.46509  -1.14225
H                     2.83573   1.14776  -0.94482
H                     1.12648   1.26663  -1.78351
H                    -1.34837  -1.91589   0.25461
H                     0.33307  -1.97833   0.85172
H                     0.00896  -2.01627  -0.89139
H                    -1.8067    0.23665   1.49448
H                    -0.14898   0.28445   2.15588
H                    -0.77334   1.66016   1.22722
H                    -1.61129   1.15199  -0.9141
H                    -1.31379  -0.2543   -1.7231

