%nproc=32
%mem=180GB
#P OPT=calcfc Freq B3LYP**

Frag_410

0 1
C                    -1.0166   -1.0409    0.1578
C                    -0.3602    0.2781   -0.1767
C                    -1.2165    1.5158   -0.2586
N                     0.9304    0.3641   -0.3952
C                     1.8241   -0.7944   -0.333
O                     1.4923    1.586    -0.6978
H                    -0.5839   -1.4528    1.0931
H                    -2.1101   -0.9294    0.3106
H                    -0.862    -1.762    -0.6715
H                    -1.1439    1.9534   -1.2765
H                    -0.8662    2.262     0.4852
H                    -2.2846    1.2967   -0.0519
H                     1.8044   -1.2414    0.6834
H                     1.5252   -1.5518   -1.0882
H                     2.8677   -0.4835   -0.5519

