%nproc=32
%mem=180GB
#P CBS-4M**

Frag_205

0 1
C                    -1.5011    0.3755    0.0074
C                    -0.3774   -0.4311    0.649
O                     0.8017    0.3474    0.7304
C                     1.6535    0.0657   -0.3582
H                    -2.4405   -0.2163    0.0198
H                    -1.2485    0.6207   -1.0452
H                    -1.6628    1.3181    0.5723
H                    -0.2442   -1.3974    0.1063
H                    -0.6872   -0.6923    1.683
H                     2.5244    0.7513   -0.3131
H                     2.0401   -0.9755   -0.2975
H                     1.1421    0.2339   -1.3318

