%nproc=32
%mem=180GB
%chk=CBS-4M.Frag_580.chk
#P CBS-4M

Frag_580

0 1
C                    -1.08939   0.00959   1.54763
C                    -0.51909  -0.00931   0.11469
C                    -1.04306  -1.25968  -0.61599
C                    -1.0031    1.25619  -0.6205
C                     1.05171  -0.05021   0.19597
C                     1.76067  -0.20432  -1.15107
O                     1.47918  -1.13979   0.97538
O                     1.53728   1.1111    0.87213
H                    -0.90506  -0.9377    2.06389
H                    -0.64916   0.81998   2.13502
H                    -2.17361   0.15682   1.52143
H                    -2.13223  -1.32508  -0.52089
H                    -0.81034  -1.23904  -1.68501
H                    -0.60742  -2.16612  -0.1873
H                    -2.09565   1.25212  -0.69321
H                    -0.61325   1.32024  -1.64122
H                    -0.72497   2.17059  -0.08484
H                     2.83704  -0.16804  -0.97103
H                     1.49293   0.59748  -1.84441
H                     1.51972  -1.16076  -1.6185
H                     1.30292  -0.91294   1.89514
H                     1.385     1.87878   0.31266

