%nproc=32
%mem=180GB
%chk=CBS-4M.Frag_477.chk
#P CBS-4M

Frag_477

0 1
C                    -1.45669  -0.39387  -0.58558
C                    -0.00924  -0.69112  -0.31379
C                     0.85303   0.13844   0.2935
N                     0.60777   1.4428    0.70766
O                     2.158    -0.17316   0.55495
H                    -2.06782  -1.29792  -0.48496
H                    -1.87091   0.33914   0.11833
H                    -1.63681  -0.00075  -1.59624
H                     0.38166  -1.63674  -0.67919
H                     1.10893   1.68394   1.55268
H                    -0.37178   1.67665   0.77058
H                     2.30396  -1.0873    0.29216

