%nproc=32
%mem=180GB
%chk=CBS-4M.Frag_1095.chk
#P CBS-4M

Frag_1095

0 1
C                    -1.24767  -0.51262  -0.65169
C                    -0.29811   0.55099  -0.06699
O                    -0.29245   0.39267   1.40016
O                    -0.82165   1.79214  -0.41795
N                     1.05256   0.53542  -0.50922
N                     1.6993   -0.55695   0.19402
H                    -0.92236  -1.52305  -0.37822
H                    -2.27658  -0.38278  -0.29573
H                    -1.24808  -0.42483  -1.73969
H                    -1.18959   0.195     1.68677
H                    -0.05933   2.38602  -0.3691
H                     2.69401  -0.34566   0.24686
H                     1.60994  -1.48915  -0.24787
H                     1.30011  -0.61709   1.14865

