%nproc=32
%mem=180GB
%chk=CBS-4M.Frag_705.chk
#P CBS-4M

Frag_705

0 1
C                     0.74079   0.99481  -0.97359
C                     0.51884   0.24572   0.34953
C                     1.5592   -0.85109   0.57193
N                    -0.83086  -0.34435   0.51101
N                    -1.11738  -1.18971  -0.59304
N                    -1.81985   0.75328   0.50834
H                     0.75694   0.29756  -1.81686
H                     1.70265   1.51648  -0.95395
H                    -0.04773   1.73177  -1.1459
H                     0.60407   0.96693   1.17406
H                     1.41266  -1.33014   1.54382
H                     1.47148  -1.61643  -0.2032
H                     2.56944  -0.43141   0.53633
H                    -1.84636  -1.83272  -0.29855
H                    -1.50326  -0.62676  -1.35606
H                    -2.65914   0.32479   0.90158
H                    -1.51149   1.39115   1.24444

