%nproc=32
%mem=180GB
%chk=CBS-4M.Frag_1141.chk
#P CBS-4M

Frag_1141

0 1
C                     1.59837  -0.12726   0.32431
C                     0.39113   0.75559   0.31739
N                    -0.78709   0.39762  -0.16206
C                    -0.93089  -0.95697  -0.72867
N                    -1.91321   1.07698  -0.22439
H                     1.46623  -1.04893   0.90905
H                     2.43088   0.41756   0.7762
H                     1.92567  -0.43313  -0.67977
H                     0.43992   1.75962   0.72064
H                    -0.24261  -1.08387  -1.56681
H                    -0.70578  -1.70459   0.03469
H                    -1.96089  -1.047    -1.06145
H                    -1.71174   1.99429   0.18938

