%nproc=32
%mem=180GB
#P CBS-4M**

Frag_213

0 1
N                     1.0508    0.1245   -0.4622
C                     0.003     0.5888    0.1378
O                    -1.0725   -0.2412    0.4448
H                     1.1225   -0.8814   -0.7335
H                    -0.0393    1.6357    0.405
H                    -1.0645   -1.2264    0.2081

