%nproc=32
%mem=180GB
#P CBS-4M**

Frag_76

0 1
C                     1.002     1.487    -0.0003
C                     0.657     0.2024    0.
C                     1.6051   -0.9607    0.0005
N                    -0.8096   -0.0975   -0.0001
N                    -1.2487   -1.2963   -0.0002
O                    -1.5776    0.881     0.
H                     0.2405    2.2556   -0.0006
H                     2.0472    1.7739   -0.0002
H                     1.4828   -1.5925    0.8879
H                     2.6309   -0.5876    0.0008
H                     1.4835   -1.5927   -0.8868
H                    -0.4404   -1.9205   -0.0003

