%nproc=32
%mem=180GB
%chk=CBS-4M.Frag_671.chk
#P CBS-4M

Frag_671

0 1
N                     1.55524  -0.09591   0.55251
C                     0.44421  -0.50639   0.10441
C                    -0.65957   0.47116  -0.18632
N                    -0.589     1.7218   -0.02134
O                    -1.80633  -0.07412  -0.66239
H                     2.20916  -0.86501   0.70358
H                     0.21892  -1.56635  -0.09534
H                     0.34066   1.94468   0.34016
H                    -1.71329  -1.02986  -0.73527

