%nproc=32
%mem=180GB
#P OPT=calcfc Freq B3LYP**

Frag_151

0 1
C                    -1.0571   -0.499    -0.0026
N                    -0.2524    0.3403   -0.5713
N                     1.0434    0.5621   -0.0838
H                    -0.7518   -1.059     0.8727
H                    -2.0501   -0.6461   -0.4045
H                     1.6654    1.2463   -0.5674
H                     1.4025    0.0555    0.7569

