%nproc=32
%mem=180GB
%chk=CBS-4M.Frag_611.chk
#P CBS-4M

Frag_611

0 1
C                     1.08174   0.32985  -0.97304
C                     0.08727   0.04707   0.17328
C                    -0.28727  -1.45031   0.1991
C                    -1.18026   0.91235   0.00714
C                     0.73087   0.39441   1.45293
N                     1.23574   0.66671   2.45662
H                     1.36626   1.38495  -0.9972
H                     1.99097  -0.26671  -0.86262
H                     0.61676   0.07594  -1.93077
H                    -0.98248  -1.66906   1.01368
H                    -0.76674  -1.7233   -0.74608
H                     0.59932  -2.07626   0.32894
H                    -1.66979   0.66511  -0.93997
H                    -0.93263   1.97692  -0.00075
H                    -1.88985   0.73243   0.81884

