%nproc=32
%mem=180GB
#P OPT=calcfc Freq B3LYP**

Frag_191

0 1
C                     2.002     0.2257   -0.033
C                     0.7064    0.518     0.0224
N                    -0.284    -0.5136   -0.0327
C                    -1.7005   -0.1839    0.0287
H                     2.3382   -0.7996   -0.1212
H                     2.7385    1.0175    0.0098
H                     0.4008    1.5538    0.1105
H                     0.0009   -1.516    -0.1178
H                    -2.3071   -1.1123   -0.0281
H                    -1.9705    0.4754   -0.8231
H                    -1.9248    0.335     0.9844

