%nproc=32
%mem=180GB
%chk=CBS-4M.Frag_897.chk
#P CBS-4M

Frag_897

0 1
C                    -1.18712  -0.73626  -0.7745
C                    -0.66296   0.3998    0.11773
N                    -0.64211   1.63929  -0.65189
N                     0.68665   0.21175   0.67472
C                     1.73275  -0.0476   -0.30439
N                     0.75835  -0.76254   1.70932
H                    -2.24072  -0.57046  -1.02393
H                    -1.12614  -1.70325  -0.26463
H                    -0.62148  -0.79253  -1.70788
H                    -1.31434   0.45401   1.00873
H                    -0.39946   2.40976  -0.03662
H                    -1.55978   1.82998  -1.04065
H                     2.70299   0.04898   0.18783
H                     1.67895  -1.05726  -0.74839
H                     1.6509    0.69018  -1.10452
H                     0.27197  -1.6236    1.43925
H                     0.27155  -0.39016   2.51993

