%nproc=32
%mem=180GB
#P CBS-4M**

Frag_159

0 1
O                    -0.2098    2.6155    0.1545
C                    -0.1092    1.3618    0.0805
C                    -1.2577    0.5779   -0.075
C                    -1.1319   -0.8102   -0.1557
C                     0.132    -1.3976   -0.0808
C                     1.2565   -0.583     0.0745
N                     1.1167    0.7695    0.1516
H                    -2.2366    1.0379   -0.1326
H                    -2.0117   -1.429    -0.2759
H                     0.2398   -2.4728   -0.1423
H                     2.2408   -1.0301    0.1335
H                     1.9711    1.3602    0.2677

