%nproc=32
%mem=180GB
#P CBS-4M**

Frag_64

0 1
C                    -0.7776    1.0303   -0.0702
C                     0.7776    1.0302   -0.0703
C                     1.1564   -0.4538    0.1928
N                     0.       -1.2733   -0.1999
C                    -1.1564   -0.4538    0.1927
H                    -1.1646    1.3619   -1.0395
H                    -1.1969    1.6999    0.6871
H                     1.197     1.7       0.6869
H                     1.1646    1.3617   -1.0396
H                     2.0564   -0.7759   -0.3389
H                     1.3371   -0.6101    1.2641
H                     0.       -1.3558   -1.2162
H                    -2.0564   -0.7758   -0.339
H                    -1.3372   -0.6102    1.2641

