%nproc=32
%mem=180GB
%chk=CBS-4M.Frag_1163.chk
#P CBS-4M

Frag_1163

0 1
N                     1.98678  -0.05093   0.08009
C                     0.87498  -0.60392   0.3309
C                    -0.43064   0.17563   0.24705
N                    -0.34449   1.46425  -0.41522
N                    -1.39929  -0.63503  -0.49112
H                     2.76145  -0.70618   0.20117
H                     0.76939  -1.65479   0.64506
H                    -0.73604   0.37355   1.2946
H                     0.41423   1.99272   0.00834
H                    -0.04727   1.29282  -1.37427
H                    -2.28177  -0.13261  -0.5129
H                    -1.56723  -1.51561  -0.01381

