%nproc=32
%mem=180GB
#P CBS-4M**

Frag_280

0 1
C                    -1.486    -0.4947    0.1522
C                    -0.6298    0.7019   -0.1539
O                    -1.1676    1.7469   -0.4869
C                     0.8756    0.6568   -0.068
N                     1.3619   -0.674     0.288
H                    -1.2776   -1.3033   -0.5789
H                    -1.2703   -0.8588    1.1785
H                    -2.5636   -0.2312    0.0902
H                     1.2053    1.3852    0.7045
H                     1.3089    0.9658   -1.0453
H                     2.3896   -0.5997    0.4665
H                     1.2536   -1.2949   -0.5471

