%nproc=32
%mem=180GB
#P CBS-4M**

Frag_139

0 1
C                     1.0511   -0.3614    0.4252
C                    -0.2382   -0.1808   -0.3785
N                    -0.7941    1.1598   -0.1856
O                    -1.1741   -1.1433    0.0264
H                     1.4621   -1.3787    0.2526
H                     0.8526   -0.2358    1.511
H                     1.8098    0.3844    0.106
H                     0.       -0.3245   -1.4578
H                    -0.0916    1.8654   -0.5067
H                    -0.958     1.3186    0.8355
H                    -1.9198   -1.1037   -0.6279

