%nproc=32
%mem=180GB
%chk=CBS-4M.Frag_994.chk
#P CBS-4M

Frag_994

0 1
C                    -1.07971  -1.07979   0.02739
C                    -0.29426   0.1383   -0.46185
N                    -0.8853    1.36133   0.10741
C                     1.17339   0.01903  -0.12082
N                     2.08007   0.06305  -1.00837
H                    -0.72289  -1.99558  -0.45209
H                    -2.14197  -0.95041  -0.19524
H                    -0.9741   -1.20489   1.1124
H                    -0.36807   0.21099  -1.55186
H                    -0.34832   2.17152  -0.19028
H                    -0.82524   1.33567   1.12322
H                     1.37708  -0.06941   0.96072
H                     3.00922  -0.00001  -0.58564

