%nproc=32
%mem=180GB
%chk=CBS-4M.Frag_501.chk
#P CBS-4M

Frag_501

0 1
C                    -1.55678   0.77839  -1.27494
C                    -0.92201   0.36076  -0.17411
N                    -1.50936   0.37934   1.09959
C                     0.5395   -0.10327  -0.19854
C                     0.61704  -1.62737  -0.0216
C                     1.3656    0.61999   0.88221
O                     1.12603   0.13947  -1.47329
H                    -2.59178   1.10265  -1.24163
H                    -1.05906   0.7895   -2.2328
H                    -1.21846  -0.37205   1.70964
H                    -2.51826   0.44342   1.07685
H                     0.07412  -2.12142  -0.83074
H                     0.18971  -1.94751   0.93344
H                     1.6616   -1.94931  -0.05251
H                     1.31389   1.70463   0.73911
H                     1.00873   0.40852   1.8931
H                     2.41022   0.3064    0.80387
H                     1.06918   1.08767  -1.63785

