%nproc=32
%mem=180GB
%chk=CBS-4M.Frag_488.chk
#P CBS-4M

Frag_488

0 1
C                    -0.27469   1.52246  -0.54859
C                    -0.52474   0.28337  -0.10374
C                    -1.87399  -0.1312    0.42335
N                     0.41694  -0.76008  -0.16993
C                     1.78416  -0.45951  -0.53887
O                     0.39198  -1.59316   0.98096
H                    -1.07324   2.25212  -0.59203
H                     0.69323   1.83804  -0.91331
H                    -2.59643   0.67478   0.28287
H                    -1.83315  -0.37823   1.48811
H                    -2.22982  -1.02753  -0.09409
H                     1.8012   -0.04483  -1.54946
H                     2.26777   0.26106   0.14416
H                     2.34646  -1.39424  -0.5301
H                     0.70434  -1.04304   1.72065

