%nproc=32
%mem=180GB
#P CBS-4M**

Frag_187

0 1
N                     0.8193   -0.5646    0.2629
N                     0.2104    0.626    -0.1783
N                    -1.1815    0.4157   -0.2388
H                     1.8199   -0.3451    0.4748
H                     0.841    -1.221    -0.5508
H                     0.3749    1.3574    0.553
H                    -1.5111    0.0139    0.6713
H                    -1.373    -0.2822   -0.9941

