%nproc=32
%mem=180GB
#P OPT=calcfc Freq B3LYP**

Frag_375

0 1
C                     1.4589    0.5929    1.102
C                     0.7365   -0.1005    0.2125
N                     1.3666   -1.1943   -0.4726
N                    -0.6497    0.2379   -0.0591
C                    -1.4308   -0.5239   -1.0313
N                    -1.2942    1.3041    0.5963
H                     1.0526    1.4274    1.6549
H                     2.4915    0.3309    1.2958
H                     2.3634   -1.4439   -0.2827
H                     0.8601   -1.7734   -1.1762
H                    -0.9601   -0.4524   -2.0345
H                    -1.4953   -1.5866   -0.7158
H                    -2.4635   -0.1205   -1.1035
H                    -0.7671    2.1828    0.389
H                    -1.2687    1.1197    1.625

