%nproc=32
%mem=180GB
%chk=CBS-4M.Frag_1102.chk
#P CBS-4M

Frag_1102

0 1
C                    -1.65886  -0.77782  -0.0005
N                    -0.80693   0.3853    0.24973
C                     0.61022   0.17422   0.03285
N                     1.37634   1.32598   0.44425
O                     0.94988  -0.03942  -1.33424
O                     0.9702   -0.95904   0.77997
H                    -2.70325  -0.48335   0.13202
H                    -1.42765  -1.55657   0.72829
H                    -1.54848  -1.20125  -1.01173
H                    -1.08427   1.14363  -0.36579
H                     1.63763   1.87679  -0.36388
H                     0.8339    1.88864   1.08919
H                     0.97967  -0.99413  -1.45224
H                     1.87169  -0.78318   1.07197

