%nproc=32
%mem=180GB
%chk=CBS-4M.Frag_626.chk
#P CBS-4M

Frag_626

0 1
C                    -1.52808  -0.07755  -0.02352
N                    -0.1838   -0.63948  -0.05981
C                     0.88811   0.2322    0.03368
N                     0.75239   1.49244   0.06674
O                     2.10072  -0.40085   0.06206
H                    -2.24899  -0.88266  -0.18566
H                    -1.62579   0.65717  -0.82416
H                    -1.75196   0.43032   0.92286
H                    -0.07158  -1.47378   0.50006
H                     1.66478   1.94058   0.01294
H                     2.00431  -1.27849  -0.32719

