%nproc=32
%mem=180GB
%chk=CBS-4M.Frag_1029.chk
#P CBS-4M

Frag_1029

0 1
C                     1.94645  -0.00578   0.00833
N                     0.64987   0.2395   -0.60561
N                    -0.35622   0.45286   0.36978
C                    -0.99378  -0.79075   0.78573
N                    -1.29107   1.40489  -0.12951
H                     1.97573  -0.86104   0.70552
H                     2.25374   0.88792   0.55732
H                     2.67367  -0.19356  -0.78807
H                     0.39429  -0.54098  -1.21475
H                    -1.53556  -1.28009  -0.04825
H                    -1.70945  -0.59106   1.58889
H                    -0.23979  -1.48643   1.16646
H                    -1.73632   1.83231   0.67781
H                    -2.0315    0.93219  -0.65937

