%nproc=32
%mem=180GB
#P CBS-4M**

Frag_5

0 1
C                    -0.9539    1.341     0.
C                    -0.3953    0.1221   -0.0002
C                    -1.1711   -1.1738    0.
C                     1.0395    0.0023    0.
N                     2.1953   -0.1315    0.
H                    -2.0333    1.4543    0.0002
H                    -0.3547    2.2445    0.0002
H                    -0.9238   -1.7764   -0.8804
H                    -0.926    -1.775     0.8819
H                    -2.2453   -0.9764   -0.0014

