%nproc=32
%mem=180GB
#P CBS-4M**

Frag_141

0 1
C                     1.27     -0.0249   -0.0108
N                     0.5171   -1.1459   -0.007
C                    -0.7353   -0.6507    0.0048
N                    -0.7324    0.6906    0.0078
N                     0.5233    1.0957   -0.002
H                     2.3516   -0.0268   -0.02
H                    -1.6301   -1.2591    0.011
H                    -1.5643    1.3211    0.0162

