%nproc=32
%mem=180GB
#P OPT=calcfc Freq B3LYP**

Frag_106

0 1
C                     1.4009   -0.158    -0.188
C                     0.3754    0.7007    0.4851
C                    -0.9412    0.4817    0.397
N                    -1.498    -0.6014   -0.3541
H                     2.4168    0.2289    0.037
H                     1.3295   -1.2015    0.185
H                     1.2515   -0.1398   -1.2882
H                     0.721     1.5422    1.0732
H                    -1.6149    1.1523    0.9159
H                    -2.5344   -0.7212   -0.3855
H                    -0.9066   -1.2839   -0.8772

