%nproc=32
%mem=180GB
%chk=CBS-4M.Frag_913.chk
#P CBS-4M

Frag_913

0 1
C                     1.93578   0.20118  -0.19882
C                     0.65596   0.00336   0.58054
O                     0.59635   0.0857    1.78655
C                    -0.62609  -0.28005  -0.24036
N                    -1.69457  -0.88496   0.54489
N                    -0.98974   1.00327  -0.84298
H                     2.73036   0.55831   0.45753
H                     2.23988  -0.75285  -0.64701
H                     1.76292   0.90242  -1.01965
H                    -0.37359  -0.9601   -1.06323
H                    -1.52761  -1.88368   0.64021
H                    -1.6293   -0.51113   1.49158
H                    -1.24353   1.65232  -0.10094
H                    -1.83673   0.86641  -1.38841

