%nproc=32
%mem=180GB
%chk=CBS-4M.Frag_676.chk
#P CBS-4M

Frag_676

0 1
C                     2.27109   0.44687   0.04886
C                     1.12654   0.1002   -0.52631
C                    -0.21156  -0.00361   0.16662
C                    -0.73729  -1.44786   0.06125
C                    -1.20465   0.98267  -0.47717
O                    -0.0103    0.33853   1.53682
H                     3.19433   0.49886  -0.51847
H                     2.31933   0.68906   1.10376
H                     1.09675  -0.13993  -1.58775
H                    -1.72215  -1.53227   0.53663
H                    -0.845    -1.75966  -0.98254
H                    -0.04826  -2.13331   0.5609
H                    -0.8448    2.00737  -0.35573
H                    -1.33289   0.78143  -1.54552
H                    -2.18981   0.89849  -0.00238
H                    -0.86153   0.27337   1.98092

