%nproc=32
%mem=180GB
%chk=CBS-4M.Frag_1014.chk
#P CBS-4M

Frag_1014

0 1
C                    -0.69735  -0.65938   1.0651
C                    -0.01615   0.54769   0.44048
O                    -0.90375   1.51306  -0.01949
O                     0.75434   0.17497  -0.71639
O                     1.81127  -0.70231  -0.26724
H                    -1.36369  -1.12985   0.33279
H                     0.04476  -1.3969    1.37575
H                    -1.28316  -0.34923   1.93467
H                     0.64851   1.04812   1.15661
H                    -1.57074   1.07001  -0.55755
H                     2.57596  -0.11609  -0.35905

