%nproc=32
%mem=180GB
%chk=CBS-4M.Frag_795.chk
#P CBS-4M

Frag_795

0 1
C                     2.15115  -0.20495   0.59261
N                     0.94295  -0.28754   0.95496
C                    -0.13205   0.00774  -0.00512
C                    -1.10038  -1.18802   0.06987
C                    -0.81902   1.28869   0.49266
N                     0.3605    0.24773  -1.36853
H                     2.46359   0.0867   -0.41474
H                     2.93012  -0.42379   1.32546
H                    -1.97223  -1.01319  -0.56889
H                    -1.43827  -1.35357   1.09618
H                    -0.59979  -2.10166  -0.26893
H                    -0.14687   2.14313   0.37488
H                    -1.73649   1.48102  -0.07412
H                    -1.07602   1.19018   1.54899
H                    -0.33142   0.76184  -1.90286
H                     0.50424  -0.6344   -1.8524

