%nproc=32
%mem=180GB
%chk=CBS-4M.Frag_524.chk
#P CBS-4M

Frag_524

0 1
N                     0.83534  -0.47531   0.2324
C                    -0.25568   0.43653  -0.06874
O                    -1.41187  -0.28588  -0.41813
H                     1.22893  -0.85859  -0.62126
H                     1.58105  -0.00036   0.73007
H                    -0.07518   1.10936  -0.92047
H                    -0.41176   1.06103   0.8262
H                    -1.49084  -0.98688   0.24003

