%nproc=32
%mem=180GB
%chk=CBS-4M.Frag_993.chk
#P CBS-4M

Frag_993

0 1
C                    -1.40782   1.30871  -0.33437
C                    -0.78549   0.15047  -0.09331
N                    -1.4087   -1.10231  -0.08474
C                     0.73599   0.02653   0.11216
N                     1.37773  -0.80399  -0.9134
N                     0.96031  -0.64684   1.37194
O                     1.36839   1.2902    0.13152
H                    -2.47847   1.35224  -0.50513
H                    -0.87247   2.24691  -0.34939
H                    -2.41724  -1.06069  -0.03084
H                    -1.01959  -1.70066   0.63581
H                     0.82062  -1.64591  -1.03816
H                     1.33578  -0.31294  -1.80266
H                     1.95595  -0.83343   1.4502
H                     0.69264  -0.02661   2.13078
H                     1.14237   1.7582   -0.68039

