%nproc=32
%mem=180GB
%chk=CBS-4M.Frag_589.chk
#P CBS-4M

Frag_589

0 1
C                    -0.63525  -0.95736   1.04211
C                    -0.29326  -0.08536   0.08908
N                    -1.20917   0.7147   -0.62461
C                     1.1412    0.2415   -0.21263
N                     2.13345  -0.54507  -0.15811
O                     1.34447   1.52518  -0.59355
H                    -1.67192  -1.19894   1.24977
H                     0.11797  -1.41702   1.66769
H                    -1.06556   0.70197  -1.62848
H                    -2.17626   0.51096  -0.40687
H                     1.815    -1.48072   0.08632
H                     0.49944   1.99026  -0.51072

