%nproc=32
%mem=180GB
%chk=CBS-4M.Frag_555.chk
#P CBS-4M

Frag_555

0 1
C                     1.5274   -0.01785  -0.48503
C                     0.48625  -0.15112   0.63876
C                    -0.91072   0.25415   0.19954
N                    -1.53074   1.32257   0.52812
N                    -1.49553  -0.61687  -0.70411
H                     1.26679  -0.64591  -1.34103
H                     1.58496   1.01636  -0.83741
H                     2.5197   -0.31335  -0.13156
H                     0.77213   0.46981   1.49274
H                     0.46819  -1.18904   0.99809
H                    -0.9478    1.89756   1.13363
H                    -1.26734  -1.59456  -0.61587
H                    -2.47338  -0.43175  -0.87598

