%nproc=32
%mem=180GB
%chk=CBS-4M.Frag_718.chk
#P CBS-4M

Frag_718

0 1
C                     1.71604  -0.24651   0.25142
C                     0.52875  -0.23654  -0.7099
N                    -0.57617   0.59047  -0.21564
C                    -1.26989  -0.01005   0.91686
O                    -1.54847   0.62031  -1.28729
H                     2.56526  -0.7546   -0.21513
H                     2.01937   0.77483   0.50028
H                     1.49192  -0.77328   1.18359
H                     0.18946  -1.2662   -0.91897
H                     0.8326    0.20076  -1.66519
H                    -2.11498   0.62519   1.19077
H                    -0.58702  -0.06177   1.76895
H                    -1.64494  -1.02242   0.69372
H                    -1.60195   1.55991  -1.49326

