%nproc=32
%mem=180GB
#P CBS-4M**

Frag_80

0 1
C                     1.389    -0.0148    0.0612
N                     0.0002    0.       -0.3722
C                    -0.7074   -1.1953    0.061
C                    -0.6817    1.2101    0.061
H                     1.9087    0.8654   -0.3305
H                     1.8899   -0.9057   -0.3308
H                     1.5064   -0.0162    1.1637
H                    -0.7687   -1.2953    1.1635
H                    -1.729    -1.1837   -0.3322
H                    -0.2042   -2.0856   -0.3294
H                    -1.7035    1.2202   -0.3319
H                    -0.7407    1.3115    1.1635
H                    -0.1599    2.0895   -0.3296

