%nproc=32
%mem=180GB
%chk=CBS-4M.Frag_457.chk
#P CBS-4M

Frag_457

0 1
C                    -1.64703   0.04211  -0.25509
C                    -0.28843  -0.66043  -0.20607
C                     0.88737   0.30324  -0.08237
O                     2.13572  -0.34635  -0.15942
O                     0.74026   0.99018   1.14047
H                    -2.46104  -0.68363  -0.34082
H                    -1.71136   0.71608  -1.11674
H                    -1.80686   0.63604   0.64783
H                    -0.24979  -1.34445   0.65279
H                    -0.12804  -1.26166  -1.10696
H                     0.8983    1.00617  -0.92902
H                     2.15443  -1.00494   0.54597
H                     1.47667   1.60765   1.20922

