%nproc=32
%mem=180GB
#P CBS-4M**

Frag_14

0 1
C                     1.8968    0.5603   -0.0001
C                     0.6928   -0.3472    0.
O                     0.751    -1.562     0.
C                    -0.6928    0.3472    0.0001
C                    -1.8968   -0.5603    0.
O                    -0.751     1.562     0.0001
H                     1.8721    1.2177    0.875
H                     2.8079   -0.0382   -0.0001
H                     1.8719    1.2176   -0.8752
H                    -2.8079    0.0382    0.
H                    -1.872    -1.2177    0.8751
H                    -1.872    -1.2176   -0.8751

