%nproc=32
%mem=180GB
%chk=CBS-4M.Frag_961.chk
#P CBS-4M

Frag_961

0 1
C                    -1.34095  -0.84765  -0.06616
C                    -0.08944   0.01102   0.19549
C                    -0.46996   1.50343   0.19965
N                     0.44395  -0.33561   1.51361
C                     0.8973   -0.22596  -0.94157
N                     2.06284  -0.68122  -0.73438
H                    -2.08297  -0.66188   0.71477
H                    -1.09126  -1.91402  -0.05515
H                    -1.7887   -0.61604  -1.03789
H                    -1.21142   1.69062   0.98076
H                     0.40637   2.12854   0.40189
H                    -0.8893    1.81177  -0.7634
H                     0.75263  -1.30546   1.48796
H                     1.30559   0.18748   1.65679
H                     0.51367   0.02937  -1.94245
H                     2.58164  -0.7744   -1.60992

