%nproc=32
%mem=180GB
#P CBS-4M**

Frag_88

0 1
C                    -1.5618    1.2173    0.0518
C                    -0.6728    0.0084    0.0067
N                    -1.3494   -1.2518    0.0172
C                     0.6767   -0.0003    0.0076
C                     1.5778    1.1983   -0.0602
N                     1.3518   -1.2531   -0.0223
H                    -2.1657    1.3111   -0.8625
H                    -1.005     2.1463    0.1809
H                    -2.2675    1.1449    0.8915
H                    -0.9988   -1.8685   -0.7125
H                    -2.3497   -1.1466   -0.1063
H                     2.2458    1.1294   -0.9294
H                     2.2204    1.2651    0.8297
H                     1.0273    2.1356   -0.1439
H                     0.8533   -1.9452    0.533
H                     2.3038   -1.1792    0.3202

