%nproc=32
%mem=180GB
%chk=CBS-4M.Frag_520.chk
#P CBS-4M

Frag_520

0 1
C                    -0.97212  -0.83789  -0.50891
C                    -0.07892   0.26756  -0.02763
N                    -0.58201   1.57108  -0.24117
C                     1.14139   0.05271   0.47519
O                     1.73159  -1.19792   0.45657
H                    -1.14801  -0.75673  -1.58764
H                    -1.95444  -0.7863   -0.01947
H                    -0.52691  -1.80945  -0.29534
H                    -1.54515   1.66495   0.06317
H                    -0.02205   2.28786   0.20592
H                     1.76773   0.8748    0.82191
H                     2.18879  -1.33057   1.2924

