%nproc=32
%mem=180GB
%chk=CBS-4M.Frag_473.chk
#P CBS-4M

Frag_473

0 1
C                    -0.99871  -1.16621  -0.96809
C                    -0.77598  -0.04378   0.04584
N                    -1.27532   1.20162  -0.48992
O                    -1.40626  -0.40934   1.29608
C                     0.72669   0.1712    0.44692
C                     1.56473   0.79188  -0.67437
N                     1.26988  -1.09888   0.94421
O                     0.74913   1.09273   1.51958
H                    -0.45088  -0.98465  -1.89601
H                    -0.69926  -2.12379  -0.539
H                    -2.06405  -1.23404  -1.21803
H                    -2.2586    1.13853  -0.73182
H                    -1.14375   1.94202   0.19218
H                    -2.33941  -0.18946   1.21433
H                     1.1398    1.7341   -1.02131
H                     1.63715   0.11217  -1.52821
H                     2.57431   0.97369  -0.29378
H                     2.17243  -0.89357   1.36488
H                     1.45037  -1.73553   0.17286
H                     0.12783   0.72139   2.16346

