%nproc=32
%mem=180GB
#P CBS-4M**

Frag_262

0 1
C                     0.2343    0.8539    0.0665
C                     0.7261   -0.5018   -0.0973
C                    -0.6427   -0.2356    0.0206
H                     0.4146    1.9193    0.1571
H                     1.5462   -1.2005   -0.2199
H                    -1.2045   -0.3243   -0.9318
H                    -1.074    -0.5111    1.0049

