%nproc=32
%mem=180GB
%chk=CBS-4M.Frag_593.chk
#P CBS-4M

Frag_593

0 1
C                    -1.65177  -0.12488  -0.54025
C                    -0.27638  -0.65704  -0.2037
O                     0.00293  -1.83224  -0.29529
C                     0.7918    0.34053   0.25024
N                     0.65921   1.61495   0.27736
N                     1.93521  -0.28338   0.64296
H                    -2.07914   0.41549   0.31067
H                    -2.2979   -0.96094  -0.80777
H                    -1.59985   0.57598  -1.38035
H                    -0.27393   1.89049  -0.01706
H                     2.75795   0.27784   0.78268
H                     2.03189  -1.2567    0.4056

