%nproc=32
%mem=180GB
%chk=CBS-4M.Frag_596.chk
#P CBS-4M

Frag_596

0 1
C                     1.50339  -1.3136    0.09462
C                     0.81217  -0.17646   0.08262
O                     1.19157   0.97269   0.72432
C                    -0.50236   0.04715  -0.62936
C                    -1.66193   0.21365   0.36166
O                    -0.40826   1.16456  -1.50588
H                     1.14911  -2.17673  -0.45244
H                     2.43355  -1.41967   0.64433
H                     2.05726   0.8437    1.12664
H                    -0.69228  -0.81769  -1.27147
H                    -1.46564   1.04634   1.04401
H                    -1.80079  -0.693     0.95904
H                    -2.58354   0.42173  -0.18801
H                    -0.03236   1.88734  -0.98998

