%nproc=32
%mem=180GB
%chk=CBS-4M.Frag_693.chk
#P CBS-4M

Frag_693

0 1
C                    -0.85221   0.0263    0.00916
O                     0.35785  -0.48454   0.62804
C                     1.46008  -0.12828   0.06363
N                     2.47488   0.16933  -0.41423
H                    -0.84941   1.11833   0.03563
H                    -1.67012  -0.3701    0.60852
H                    -0.92106  -0.33114  -1.02075

