%nproc=32
%mem=180GB
#P OPT=calcfc Freq B3LYP**

Frag_359

0 1
C                     1.9607   -0.0179   -0.2157
N                     0.9219    0.5676    0.293
N                    -0.3942    0.1017    0.1106
N                    -1.4607    0.7989    0.6986
N                    -0.6572   -1.0495   -0.6505
H                     1.8695   -0.912    -0.8185
H                     2.945     0.3923   -0.0369
H                    -1.4253    1.7809    0.3424
H                    -1.2816    0.8322    1.7279
H                    -1.3109   -0.7731   -1.4177
H                    -1.1673   -1.7212   -0.0332

