%nproc=32
%mem=180GB
%chk=CBS-4M.Frag_740.chk
#P CBS-4M

Frag_740

0 1
C                    -1.2564   -0.82991  -0.21473
C                    -0.32291   0.34246   0.03917
O                    -0.7006    1.03104   1.19096
O                    -0.37891   1.18216  -1.10554
C                     1.15762  -0.06601   0.2128
O                     1.87198   0.42761   1.05524
O                     1.57574  -0.96416  -0.68396
H                    -2.27827  -0.44691  -0.2592
H                    -1.01115  -1.31513  -1.16022
H                    -1.18467  -1.55731   0.59742
H                     0.12056   1.24119   1.6641
H                    -0.11477   2.0619   -0.811
H                     2.52168  -1.10703  -0.52505

