%nproc=32
%mem=180GB
%chk=CBS-4M.Frag_525.chk
#P CBS-4M

Frag_525

0 1
C                     2.36049  -0.4932    0.47532
C                     1.24523  -0.14674   0.17938
C                    -0.09963   0.20906  -0.1385
C                    -0.37519   1.30924  -0.85021
C                    -1.17124  -0.7254    0.37477
H                     3.35129  -0.78128   0.72579
H                     0.4089    1.96532  -1.20837
H                    -1.39846   1.57724  -1.09038
H                    -1.02609  -1.73682  -0.01988
H                    -2.16541  -0.3763    0.08556
H                    -1.12999  -0.80112   1.46672

