%nproc=32
%mem=180GB
#P CBS-4M**

Frag_27

0 1
C                     1.3836    0.1308    0.2147
N                     0.8335   -1.1721   -0.1755
C                    -0.5782   -1.2633    0.2146
N                    -1.4326   -0.1355   -0.1746
C                    -0.805     1.1324    0.2147
N                     0.5987    1.3078   -0.1754
H                     1.4572    0.1377    1.31
H                     2.3972    0.2265   -0.185
H                     0.9085   -1.2774   -1.1869
H                    -1.0021   -2.1891   -0.1849
H                    -0.6089   -1.3307    1.3099
H                    -1.5615   -0.1478   -1.1861
H                    -0.8476    1.1932    1.3099
H                    -1.3947    1.9623   -0.185
H                     0.6525    1.425    -1.1869

