%nproc=32
%mem=180GB
%chk=CBS-4M.Frag_556.chk
#P CBS-4M

Frag_556

0 1
C                    -0.9457    1.38143  -0.26811
C                    -0.97784   0.09266   0.08919
O                    -2.11763  -0.55534   0.40094
C                     0.23256  -0.78465   0.18734
C                     1.60748  -0.24375  -0.12182
O                     0.05482  -1.94265   0.5279
H                    -1.85305   1.96975  -0.32285
H                    -0.01129   1.86593  -0.5109
H                    -1.83466  -1.46339   0.6163
H                     1.65418   0.12788  -1.1501
H                     1.85153   0.59275   0.54028
H                     2.33961  -1.04052   0.01183

