%nproc=32
%mem=180GB
#P OPT=calcfc Freq B3LYP**

Frag_128

0 1
N                     1.4452    0.2362   -0.0219
C                     0.3852   -0.4476    0.2648
N                    -0.9122    0.0345   -0.0835
H                     1.3872    1.1559   -0.5136
H                     0.485    -1.3964    0.7749
H                    -1.7569   -0.5301    0.1554
H                    -1.0335    0.9474   -0.5761

