%nproc=32
%mem=180GB
#P CBS-4M**

Frag_288

0 1
C                     0.7205    1.1688    0.3101
C                     1.4612   -0.1141   -0.1275
N                     0.5471   -1.2024   -0.5154
C                    -0.6672   -1.2008    0.3072
C                    -1.4605    0.1137    0.1365
N                    -0.6164    1.2441   -0.2882
H                     0.6298    1.1921    1.419
H                     1.31      2.0621    0.0104
H                     2.1116   -0.4638    0.7029
H                     2.1278    0.1229   -0.9862
H                     0.2715   -1.0776   -1.5184
H                    -0.3885   -1.3369    1.376
H                    -1.3072   -2.0638    0.0226
H                    -2.266    -0.0399   -0.6153
H                    -1.9562    0.3705    1.0973
H                    -0.5175    1.2252   -1.331

