%nproc=32
%mem=180GB
%chk=CBS-4M.Frag_557.chk
#P CBS-4M

Frag_557

0 1
C                    -1.65861   0.03767   0.2168
C                    -0.21462   0.14673  -0.15173
O                     0.11723   1.11113  -1.09341
C                     0.7603   -0.64638   0.30271
N                     2.09388  -0.60156  -0.13973
H                    -1.81236  -0.74269   0.96593
H                    -2.28537  -0.19714  -0.65423
H                    -2.0387    0.98039   0.63968
H                    -0.52954   1.82174  -1.04772
H                     0.52009  -1.44857   0.9905
H                     2.28541   0.25832  -0.64032
H                     2.76218  -0.71944   0.61174

