%nproc=32
%mem=180GB
%chk=CBS-4M.Frag_1080.chk
#P CBS-4M

Frag_1080

0 1
C                     1.81308   0.01908   0.10437
C                     0.51189  -0.61303  -0.39004
C                    -0.7533    0.05014   0.1887
N                    -0.82345   1.43338  -0.20547
O                    -0.75402   0.06118   1.59033
O                    -1.90985  -0.72087  -0.17207
H                     1.87738   1.06576  -0.2015
H                     1.85319  -0.01125   1.19611
H                     2.68145  -0.51615  -0.29134
H                     0.46243  -0.56976  -1.4881
H                     0.47251  -1.67402  -0.1165
H                    -1.66228   1.84021   0.19729
H                    -0.89386   1.50733  -1.21488
H                    -1.09991  -0.79648   1.8599
H                    -1.77557  -1.07555  -1.0568

