%nproc=32
%mem=180GB
%chk=CBS-4M.Frag_614.chk
#P CBS-4M

Frag_614

0 1
C                     1.009     0.57491   1.29312
C                     0.36915   0.07071  -0.01208
C                     0.91097   0.90053  -1.19155
C                     0.71112  -1.41301  -0.23615
C                    -1.17104   0.26588   0.0749
N                    -1.7512   -0.51178   1.13927
O                    -1.82793  -0.07373  -1.15501
H                     0.60959   0.03681   2.15513
H                     0.81094   1.64269   1.44357
H                     2.09577   0.44068   1.26626
H                     0.56251   0.5164   -2.15621
H                     2.00516   0.86958  -1.21017
H                     0.61502   1.95382  -1.11049
H                     0.15706  -1.81285  -1.09049
H                     0.47517  -2.0176    0.64539
H                     1.78105  -1.53439  -0.43443
H                    -1.36377   1.32632   0.30407
H                    -1.69154  -1.49842   0.90285
H                    -2.74204  -0.29801   1.20082
H                    -1.56508   0.56155  -1.8289

