%nproc=32
%mem=180GB
%chk=CBS-4M.Frag_442.chk
#P CBS-4M

Frag_442

0 1
C                     1.55568  -0.45897  -1.26838
C                     0.81569  -0.52066   0.07906
C                     1.6946    0.12779   1.16258
C                    -0.64852   0.03522   0.02855
C                    -1.32818  -0.16754   1.3986
C                    -0.69224   1.53292  -0.3304
C                    -1.46619  -0.7506   -1.01737
H                     1.02208  -0.98225  -2.06554
H                     2.54226  -0.92514  -1.17542
H                     1.7178    0.57462  -1.59318
H                     0.71495  -1.58433   0.34155
H                     2.67722  -0.35511   1.18615
H                     1.86381   1.19143   0.96224
H                     1.26372   0.03831   2.16275
H                    -1.2703   -1.2141    1.71948
H                    -2.38812   0.10332   1.34348
H                    -0.87637   0.44916   2.18035
H                    -1.72883   1.88702  -0.35663
H                    -0.15845   2.14458   0.4034
H                    -0.25661   1.72992  -1.31475
H                    -2.52072  -0.45685  -0.97774
H                    -1.41604  -1.82972  -0.83142
H                    -1.11731  -0.5688   -2.03757

