%nproc=32
%mem=180GB
%chk=CBS-4M.Frag_635.chk
#P CBS-4M

Frag_635

0 1
C                    -1.04248   1.71731   0.10616
C                    -0.67945   0.45701  -0.12184
C                    -1.53925  -0.50401  -0.904
C                     0.62086  -0.11782   0.43464
C                     1.54708  -0.6666   -0.65308
O                     1.26592   0.89926   1.17031
O                     0.33452  -1.22231   1.28666
H                    -0.41383   2.39773   0.66489
H                    -1.98575   2.1022   -0.2694
H                    -1.67316  -1.44286  -0.35748
H                    -2.5212   -0.0702   -1.10682
H                    -1.08358  -0.76133  -1.86776
H                     1.06686  -1.46555  -1.22098
H                     2.44533  -1.08366  -0.18578
H                     1.83722   0.13708  -1.33316
H                     2.06974   0.50924   1.53106
H                    -0.24882  -0.88541   1.97789

