%nproc=32
%mem=180GB
%chk=CBS-4M.Frag_630.chk
#P CBS-4M

Frag_630

0 1
C                     1.79834   0.75429  -0.15237
N                     0.87367   0.39423   0.63023
C                    -0.44807   0.09245   0.0608
C                    -0.65524  -1.42002   0.06297
O                    -1.38374   0.75526   0.88362
O                    -0.65027   0.5472   -1.2483
H                     2.78151   0.98331   0.26048
H                     1.66047   0.84924  -1.23417
H                    -1.69587  -1.63205  -0.19057
H                    -0.00082  -1.89331  -0.67342
H                    -0.43112  -1.82522   1.05164
H                    -0.93055   0.92381   1.71831
H                    -0.91849   1.47091  -1.16922

