%nproc=32
%mem=180GB
#P CBS-4M**

Frag_225

0 1
C                    -1.2449   -0.5781    0.4516
C                     0.1018   -0.0592   -0.0913
C                     1.0552    0.2304    1.0815
C                    -0.1269    1.2364   -0.8896
N                     0.7146   -1.0627   -0.971
H                    -1.7153    0.1763    1.1187
H                    -1.0969   -1.5147    1.031
H                    -1.9455   -0.7926   -0.3839
H                     1.2292   -0.6903    1.6791
H                     2.0366    0.5889    0.7027
H                     0.6297    1.0079    1.7523
H                    -0.5664    2.0257   -0.242
H                    -0.8205    1.054    -1.7386
H                     0.8346    1.6118   -1.3015
H                     0.0615   -1.2801   -1.7594
H                     0.8531   -1.9537   -0.4395

