%nproc=32
%mem=180GB
%chk=CBS-4M.Frag_1122.chk
#P CBS-4M

Frag_1122

0 1
C                     0.82354  -0.8469   -1.44694
C                     0.63272  -0.09094  -0.11613
C                     1.26671  -0.91623   1.02172
C                     1.35295   1.26964  -0.20697
C                    -0.90397   0.12995   0.16664
N                    -1.05647   0.98629   1.3516
N                    -1.5422   -1.1719    0.40505
N                    -1.51895   0.78005  -0.99852
H                     0.56436  -0.22245  -2.3078
H                     1.87329  -1.13653  -1.56388
H                     0.21462  -1.75469  -1.47206
H                     1.06344  -0.46116   1.99482
H                     2.35246  -0.9651    0.88571
H                     0.8969   -1.94652   1.02796
H                     1.37564   1.78023   0.76135
H                     2.39277   1.12055  -0.51735
H                     0.8671    1.92075  -0.93878
H                    -0.79543   1.9563    1.11298
H                    -2.03173   1.00782   1.61752
H                    -1.23939  -1.53935   1.29704
H                    -2.54484  -1.04003   0.47366
H                    -2.48613   1.01928  -0.77344
H                    -1.55722   0.12123  -1.77419

