%nproc=32
%mem=180GB
%chk=CBS-4M.Frag_721.chk
#P CBS-4M

Frag_721

0 1
C                    -1.35765   0.8175   -0.32285
C                    -0.18348  -0.07138   0.08236
C                     0.2717   -0.98235  -1.07314
N                    -0.50556  -0.75925   1.31858
N                     1.02736   0.83342   0.35438
N                     1.79      0.47487   1.29666
O                     1.19459   1.79058  -0.41981
H                    -1.62947   1.4799    0.50131
H                    -1.11073   1.4127   -1.20064
H                    -2.21794   0.18136  -0.55257
H                     0.5823   -0.39258  -1.93943
H                     1.10707  -1.61172  -0.75352
H                    -0.55915  -1.62914  -1.36931
H                    -1.26546  -1.40886   1.14203
H                     0.2961   -1.28887   1.64487
H                     2.56031   1.15395   1.29097

