%nproc=32
%mem=180GB
%chk=CBS-4M.Frag_1005.chk
#P CBS-4M

Frag_1005

0 1
C                    -1.27902  -0.55476  -0.74456
C                    -0.33107   0.1805    0.21958
N                    -0.45654  -0.43849   1.5493
N                    -0.70814   1.57996   0.42192
C                     1.13993   0.16182  -0.27701
N                     1.95961   1.13313  -0.17674
N                     1.55403  -1.02405  -0.86499
H                    -1.22876  -0.11204  -1.74324
H                    -1.04689  -1.61982  -0.84738
H                    -2.30227  -0.47385  -0.36709
H                     0.22461  -0.00993   2.17105
H                    -0.23887  -1.42916   1.5067
H                    -1.60153   1.59758   0.90432
H                    -0.82582   2.04664  -0.4724
H                     1.46865   1.93164   0.2263
H                     1.11306  -1.87662  -0.55949
H                     2.55892  -1.09255  -0.9462

