%nproc=32
%mem=180GB
%chk=CBS-4M.Frag_451.chk
#P CBS-4M

Frag_451

0 1
C                     2.10384  -0.34408  -0.21659
N                     0.85897  -0.79445   0.3938
C                    -0.37432  -0.04496   0.08021
C                    -0.30332   1.44425   0.48547
C                    -0.66709  -0.16227  -1.42487
C                    -1.50024  -0.73187   0.8692
H                     2.36532   0.71302  -0.03914
H                     2.92327  -0.95633   0.17257
H                     2.07345  -0.49998  -1.29941
H                     0.97379  -0.80943   1.40231
H                     0.4832    1.97599  -0.05851
H                    -1.2495    1.95423   0.27479
H                    -0.10121   1.54593   1.55799
H                    -1.64772   0.26474  -1.65642
H                     0.07236   0.37336  -2.02777
H                    -0.66378  -1.21215  -1.73209
H                    -1.31415  -0.67224   1.94835
H                    -2.46555  -0.255     0.67351
H                    -1.56731  -1.78867   0.59642

