%nproc=32
%mem=180GB
%chk=CBS-4M.Frag_715.chk
#P CBS-4M

Frag_715

0 1
C                     1.30869   0.43236   0.32657
C                     0.09034  -0.0563    0.05521
N                    -0.30619  -1.39227   0.14664
C                    -0.96643   0.85293  -0.47968
O                    -0.84613   2.04171  -0.63946
H                     1.50602   1.47753   0.13009
H                     2.11164  -0.18193   0.71758
H                    -1.27617  -1.53043   0.39679
H                     0.30017  -1.97825   0.70258
H                    -1.92203   0.33474  -0.73122

