%nproc=32
%mem=180GB
%chk=CBS-4M.Frag_839.chk
#P CBS-4M

Frag_839

0 1
C                    -1.19447  -0.6226    0.11864
C                    -0.16698   0.46066  -0.23176
O                    -0.33203   1.62473   0.57104
C                     1.23398  -0.03432   0.03763
N                     1.92134  -0.59473  -0.86724
H                    -2.21238  -0.25304  -0.05275
H                    -1.04439  -1.50821  -0.50504
H                    -1.10781  -0.91059   1.17123
H                    -0.24072   0.69866  -1.30226
H                    -1.24481   1.91641   0.48562
H                     1.56242   0.12133   1.07564
H                     2.82585  -0.89831  -0.50064

