%nproc=32
%mem=180GB
%chk=CBS-4M.Frag_495.chk
#P CBS-4M

Frag_495

0 1
C                    -1.77776   0.22188   0.37238
C                    -0.70406  -0.48263   0.03047
C                     0.55139   0.097    -0.55614
N                     1.71948  -0.33052   0.22612
H                    -2.66437  -0.24588   0.78735
H                    -1.81583   1.30035   0.24264
H                    -0.68284  -1.56046   0.18161
H                     0.43788   1.19032  -0.6504
H                     0.68668  -0.29419  -1.57433
H                     1.67868   0.09148   1.14943
H                     2.57055   0.01255  -0.20894

