%nproc=32
%mem=180GB
#P OPT=calcfc Freq B3LYP**

Frag_370

0 1
C                    -1.8055   -0.3753   -0.1441
N                    -0.4096   -0.7803   -0.0383
C                     0.5723    0.0646    0.0452
N                     1.9112   -0.4192    0.1459
O                     0.3283    1.4375    0.0372
H                    -2.0997    0.2159    0.7492
H                    -1.9581    0.2304   -1.0626
H                    -2.4443   -1.2805   -0.2012
H                     2.1062   -1.4452    0.153
H                     2.7106    0.2486    0.2137
H                     1.0886    2.1033    0.1019

