%nproc=32
%mem=180GB
%chk=CBS-4M.Frag_674.chk
#P CBS-4M

Frag_674

0 1
C                     1.90463  -0.40934  -0.39628
C                     0.93945  -0.18587   0.4884
C                    -0.45303   0.31206   0.1538
C                    -1.52117  -0.7493    0.401
O                    -0.57255   0.68053  -1.20351
O                    -0.76637   1.40084   1.01412
H                     2.88907  -0.74902  -0.09298
H                     1.73315  -0.27899  -1.45978
H                     1.11034  -0.34798   1.55099
H                    -2.5055   -0.30076   0.24673
H                    -1.45745  -1.11997   1.4262
H                    -1.39     -1.58022  -0.29453
H                     0.06744   1.38026  -1.37689
H                     0.02189   1.94778   1.10583

