%nproc=32
%mem=180GB
#P OPT=calcfc Freq B3LYP**

Frag_300

0 1
C                    -0.6261   -0.5545    1.1417
C                     0.0204    0.1458   -0.0691
C                     1.3273   -0.5744   -0.4382
N                     0.3292    1.5365    0.283
N                    -0.8897    0.1173   -1.2225
H                    -1.5798   -0.0547    1.4159
H                    -0.8441   -1.619     0.9089
H                     0.0538   -0.5152    2.0199
H                     1.1327   -1.6419   -0.6787
H                     2.049    -0.5261    0.4056
H                     1.7925   -0.0961   -1.3267
H                    -0.5558    2.0323    0.54
H                     0.7082    2.0248   -0.5616
H                    -1.783     0.6002   -0.9702
H                    -1.1345   -0.875    -1.4479

