%nproc=32
%mem=180GB
#P CBS-4M**

Frag_154

0 1
O                     2.7032   -0.3091    0.0696
N                     1.3369   -0.1529    0.0344
C                     0.8074    1.1025    0.0095
C                    -0.5782    1.2811   -0.0263
C                    -1.4113    0.1614   -0.0364
C                    -0.8529   -1.1174   -0.0105
C                     0.5372   -1.2563    0.0251
H                     1.4586    1.9677    0.0175
H                    -1.0009    2.2772   -0.0461
H                    -2.4863    0.2843   -0.0641
H                    -1.4899   -1.9924   -0.018
H                     0.976    -2.2461    0.0453

