%nproc=32
%mem=180GB
%chk=CBS-4M.Frag_828.chk
#P CBS-4M

Frag_828

0 1
C                    -0.88207   1.55762   0.28471
C                    -0.49452   0.13375  -0.1471
C                    -1.13452  -0.89833   0.79068
N                    -0.94154  -0.16885  -1.52669
C                     1.05788  -0.00479  -0.15003
N                     1.60824   0.25348   1.17931
N                     1.42318  -1.33558  -0.63932
H                    -0.46866   2.29911  -0.41014
H                    -1.97186   1.67132   0.28681
H                    -0.49944   1.78669   1.28145
H                    -0.82968  -0.71883   1.82513
H                    -0.84295  -1.91162   0.50868
H                    -2.22741  -0.82132   0.75371
H                    -0.70489   0.61208  -2.13533
H                    -1.95565  -0.23477  -1.54557
H                     1.43687   0.80821  -0.79633
H                     2.59728   0.4702    1.10331
H                     1.55483  -0.61261   1.71051
H                     2.40347  -1.35449  -0.90266
H                     0.87124  -1.53137  -1.47113

