%nproc=32
%mem=180GB
%chk=CBS-4M.Frag_833.chk
#P CBS-4M

Frag_833

0 1
C                    -0.95429  -0.03154  -0.02918
N                     0.13275  -0.69211  -0.12099
C                     1.31702  -0.0852    0.01716
N                     2.39517   0.33609   0.11938
H                    -0.99861   1.04313   0.16263
H                    -1.89213  -0.57028  -0.14909

