%nproc=32
%mem=180GB
%chk=CBS-4M.Frag_670.chk
#P CBS-4M

Frag_670

0 1
C                    -1.10945  -0.44312   0.1046
N                     0.23834   0.06416  -0.04457
N                     0.5419    1.33572   0.46165
C                     1.23366  -0.65265  -0.66193
O                     2.37582  -0.30546  -0.82588
H                    -1.83558   0.21058  -0.39677
H                    -1.17998  -1.43933  -0.33958
H                    -1.3891   -0.51688   1.16398
H                     0.34747   1.35306   1.46068
H                    -0.06138   2.02514   0.01782
H                     0.8383   -1.63141  -1.00501

