%nproc=32
%mem=180GB
%chk=CBS-4M.Frag_917.chk
#P CBS-4M

Frag_917

0 1
C                    -0.56505   1.25573  -0.22775
C                    -0.11892  -0.20995  -0.28039
C                    -0.9822   -1.11129   0.60492
N                     1.28275  -0.42292   0.11797
O                     2.12462   0.42753  -0.68736
H                     0.10479   1.87997  -0.82261
H                    -1.583     1.36985  -0.61506
H                    -0.55613   1.62642   0.80506
H                    -0.18593  -0.56239  -1.31743
H                    -0.92231  -0.80185   1.65571
H                    -0.65719  -2.15288   0.53858
H                    -2.03213  -1.05082   0.30461
H                     1.39889  -0.03718   1.0563
H                     2.6918   -0.21033  -1.13265

