%nproc=32
%mem=180GB
#P CBS-4M**

B3LYP6-31Gxx.Frag_108

0 1
C                     1.1707   -0.8027    1.124
C                     0.6146   -0.3525    0.
O                    -0.4448    0.5052    0.
C                    -0.9176    0.888     1.2834
H                     2.0112   -1.4832    1.075
H                     0.8001   -0.5027    2.0977
H                     0.9788   -0.6474   -0.9848
H                    -0.1433    1.4112    1.8602
H                    -1.2682    0.0217    1.8602
H                    -1.756     1.5667    1.1188

