%nproc=32
%mem=180GB
%chk=CBS-4M.Frag_540.chk
#P CBS-4M

Frag_540

0 1
C                     2.02275  -1.02626   0.43333
C                     1.06927  -0.64357  -0.40984
C                    -0.21219   0.09986  -0.09415
C                    -0.21735   1.41818  -0.90004
C                    -1.40231  -0.77226  -0.55329
C                    -0.35564   0.41435   1.40203
H                     2.90219  -1.55728   0.08405
H                     1.97463  -0.83151   1.49939
H                     1.19052  -0.87711  -1.46884
H                    -1.15651   1.96146  -0.74704
H                    -0.11297   1.22674  -1.9735
H                     0.60751   2.06923  -0.59379
H                    -1.43791  -1.71341   0.00438
H                    -2.35055  -0.24605  -0.39675
H                    -1.3271   -1.01599  -1.61855
H                    -0.36823  -0.50021   2.00346
H                     0.46577   1.04383   1.75887
H                    -1.29197   0.94991   1.59026

