%nproc=32
%mem=180GB
%chk=CBS-4M.Frag_669.chk
#P CBS-4M

Frag_669

0 1
C                    -0.34592  -0.54537   1.41224
C                    -0.28807  -0.04228  -0.04188
C                    -1.19895   1.18753  -0.20402
C                    -0.74013  -1.15462  -1.00307
C                     1.15892   0.36007  -0.41076
O                     1.55094   1.41546   0.43849
O                     2.08457  -0.70213  -0.34549
H                    -1.37894  -0.77229   1.69405
H                     0.22872  -1.4698    1.54578
H                     0.04157   0.20652   2.10418
H                    -2.24323   0.91662  -0.01578
H                    -1.13934   1.58915  -1.22224
H                    -0.9164    1.98354   0.48817
H                    -0.0727   -2.01833  -0.94804
H                    -0.74609  -0.80252  -2.04091
H                    -1.7553   -1.48312  -0.75776
H                     1.18739   0.67374  -1.46516
H                     2.45406   1.64844   0.19751
H                     2.11869  -0.99071   0.57459

