%nproc=32
%mem=180GB
%chk=CBS-4M.Frag_1055.chk
#P CBS-4M

Frag_1055

0 1
C                     1.22415   0.58422   0.74263
N                     0.72539  -0.04777  -0.47345
N                     1.02107  -1.43778  -0.5577
C                    -0.69595   0.12075  -0.6954
N                    -1.51227  -0.41068   0.39088
O                    -0.88468   1.51101  -0.90948
H                     0.8737    0.08288   1.66278
H                     0.90854   1.62974   0.75925
H                     2.31807   0.55202   0.73672
H                     0.79825  -1.89463   0.33181
H                     2.0225   -1.52247  -0.70365
H                    -0.93227  -0.46797  -1.58949
H                    -2.45063  -0.6323    0.07747
H                    -1.5822    0.26378   1.14694
H                    -1.83358   1.6691   -0.91918

