%nproc=32
%mem=180GB
#P OPT=calcfc Freq B3LYP**

Frag_419

0 1
C                    -0.8087    1.2744   -0.1588
N                    -0.2693    0.052     0.4614
C                    -1.309    -0.989     0.4848
C                     0.9107   -0.4309   -0.2821
N                     2.0355    0.4794   -0.0869
H                    -0.0457    2.0816   -0.1497
H                    -1.1286    1.09     -1.209
H                    -1.6798    1.6457    0.4229
H                    -2.1979   -0.6323    1.0488
H                    -0.9327   -1.8933    1.0098
H                    -1.6219   -1.2712   -0.5456
H                     1.2068   -1.4423    0.0813
H                     0.6863   -0.5161   -1.3703
H                     2.8477    0.1054   -0.6291
H                     2.3067    0.4466    0.9227

