%nproc=32
%mem=180GB
#P OPT=calcfc Freq B3LYP**

Frag_299

0 1
C                    -1.6538   -0.2026   -0.5538
C                    -0.3484    0.1179    0.1998
N                    -0.3563    1.54      0.5677
N                    -0.2717   -0.6924    1.4225
C                     0.8637   -0.2009   -0.7127
N                     2.1279    0.093    -0.0403
H                    -1.7271    0.4032   -1.4825
H                    -2.5337    0.0296    0.0836
H                    -1.6936   -1.278    -0.831
H                    -0.2969    2.1275   -0.2964
H                     0.4864    1.7554    1.1489
H                    -1.0903   -0.4693    2.035
H                    -0.3382   -1.7072    1.1752
H                     0.8438   -1.2728   -1.0145
H                     0.7988    0.4085   -1.6417
H                     2.2951   -0.6424    0.6843
H                     2.8943   -0.0096   -0.7442

