%nproc=32
%mem=180GB
%chk=CBS-4M.Frag_645.chk
#P CBS-4M

Frag_645

0 1
N                    -1.44554  -0.31239  -0.09067
C                    -0.17077  -0.1374   -0.47442
O                     0.29656  -0.28627  -1.59972
C                     0.76119   0.3014    0.68022
O                     0.38049   0.47013   1.8145
O                     2.01249   0.46279   0.25482
H                    -2.14518  -0.59841  -0.75766
H                    -1.68449  -0.1512    0.87739
H                     1.99523   0.25145  -0.70446

