%nproc=32
%mem=32GB
#P OPT Freq M062X/6-31+G(2df,p) INT=UltraFine

TANHAR

0 1
C     9.3245  1.5810 16.1490
C     8.3179  1.2444 15.1064
C     8.1127  0.4116 13.9411
C     9.1366 -0.3645 13.4277
C     8.8803 -1.1953 12.3503
C     7.6326 -1.2378 11.7786
H     7.4540 -1.8086 11.0278
C     6.6237 -0.4557 12.2782
N     9.6097  0.5368 17.1992
O     8.7377 -0.2813 17.4189
O    10.6777  0.5814 17.7733
H    10.0098 -0.3158 13.8105
C     6.8487  0.3716 13.3617
H     6.1460  0.9251 13.7028
C    10.4748  2.4362 15.9544
N    11.3236  3.1712 15.7732
C     7.9399  2.0524 16.0289
H     7.2337  2.5913 16.4042
H     9.5796 -1.7518 12.0111
H     5.7494 -0.4755 11.8786

