%nproc=32
%mem=180MB
%chk=G4.Frag_673.chk
#P G4

Frag_673

0 1
C                    -0.6757    0.2437    1.3943
C                    -0.0991   -0.041    -0.007
C                    -1.1649    0.3553   -1.0551
C                     0.1762   -1.5513   -0.1506
C                     1.2215    0.7248   -0.1686
N                     1.4121    1.6136   -1.0961
O                     2.2796    0.4745    0.7056
H                     0.012    -0.1016    2.1946
H                    -0.8471    1.3338    1.5284
H                    -1.6452   -0.2818    1.5351
H                    -0.806     0.1413   -2.0851
H                    -1.4195    1.4341   -0.9724
H                    -2.1019   -0.2228   -0.9002
H                     0.626    -1.7702   -1.1433
H                    -0.7664   -2.1335   -0.0587
H                     0.8721   -1.914     0.6347
H                     0.7094    1.8961   -1.8118
H                     2.217    -0.2012    1.4562

