%nproc=32
%mem=180GB
%chk=G4.Frag_466.chk
#P G4

Frag_466

0 1
C                    -1.3515    0.916    -0.1522
N                    -0.1998    0.3213   -0.0705
C                    -0.0739   -0.98      0.5913
N                     0.9407    0.9857   -0.5529
O                     2.1767    0.4424   -0.4431
H                    -1.4357    1.8918   -0.6154
H                    -2.251     0.4565    0.2402
H                     0.2647   -0.8325    1.6382
H                     0.6656   -1.6113    0.0554
H                    -1.0409   -1.5295    0.5961
H                     2.3052   -0.0605   -1.2869

