%nproc=32
%mem=180MB
%chk=G4.Frag_650.chk
#P G4

Frag_650

0 1
C                     1.3025    0.0042    0.0069
C                     0.        0.        0.
C                    -1.3025   -0.0042   -0.0069
H                     1.8374    0.6173    0.7193
H                     1.8489   -0.6053   -0.6997
H                    -1.8422    0.7034   -0.6213
H                    -1.8441   -0.7153    0.6017

