%nproc=32
%mem=180GB
%chk=G4.Frag_723.chk
#P G4

Frag_723

0 1
C                     1.7131    0.728    -0.7172
C                     0.8618   -0.0681   -0.0386
C                     1.4762   -1.2114    0.7371
C                    -0.6743    0.1042   -0.0813
C                    -1.1163    1.4179   -0.7597
N                    -1.225     0.1195    1.2835
N                    -1.2587   -1.0104   -0.8405
H                     2.7847    0.5547   -0.671
H                     1.3871    1.558    -1.3306
H                     2.1011   -1.8331    0.0607
H                     0.7162   -1.8762    1.1907
H                     2.1157   -0.8089    1.5509
H                    -2.2191    1.5351   -0.685
H                    -0.8533    1.4144   -1.8394
H                    -0.6481    2.2947   -0.2625
H                    -1.1798   -0.8301    1.7165
H                    -0.6629    0.7698    1.8809
H                    -1.0162   -1.9203   -0.3863
H                    -2.3024   -0.9378   -0.8083

