%nproc=32
%mem=180MB
%chk=G4.Frag_865.chk
#P G4

Frag_865

0 1
C                    -1.4694   -0.5075    0.2961
C                    -0.1215    0.2193    0.1557
N                    -0.2204    1.2687   -0.8691
O                     0.1938    0.7954    1.4009
C                     0.9724   -0.7959   -0.2391
O                     2.2012   -0.1519   -0.4522
H                    -2.2637    0.211     0.5915
H                    -1.763    -0.9836   -0.6641
H                    -1.4045   -1.2945    1.078
H                    -0.9495    1.9609   -0.5789
H                    -0.5367    0.8458   -1.7727
H                     0.9472    1.427     1.2618
H                     0.6832   -1.3084   -1.1819
H                     1.0723   -1.5813    0.5465
H                     2.6587   -0.1049    0.4275

