%nproc=32
%mem=180MB
%chk=G4.Frag_981.chk
#P G4

Frag_981

0 1
C                    -0.8495   -0.3907    0.6921
C                     0.0152    0.1885   -0.4274
O                    -0.004     1.5915   -0.3764
N                     1.3885   -0.2867   -0.289
O                     2.1491    0.2267    0.5577
O                     1.7745   -1.4435   -0.9251
H                    -0.4791   -0.0488    1.682
H                    -0.8216   -1.5006    0.6583
H                    -1.9023   -0.0595    0.5682
H                    -0.3852   -0.1562   -1.4093
H                    -0.8857    1.8793   -0.7311

