%nproc=32
%mem=180GB
%chk=G4.Frag_605.chk
#P G4

Frag_605

0 1
C                    -1.3018   -0.717    -0.2117
C                    -0.0343    0.1575   -0.2991
C                     0.612     0.3081    1.0982
N                    -0.4252    1.4803   -0.7981
O                     0.8864   -0.3948   -1.2253
O                     1.2406   -1.5941   -0.7948
H                    -1.7401   -0.8518   -1.2236
H                    -2.0621   -0.2366    0.4411
H                    -1.0713   -1.7183    0.2105
H                     0.8466   -0.6834    1.5406
H                    -0.0763    0.8364    1.7923
H                     1.5542    0.8916    1.022
H                    -1.0568    1.9496   -0.1077
H                     0.4297    2.077    -0.8887
H                     2.1985   -1.5046   -0.5556

