%nproc=32
%mem=180GB
%chk=G4.Frag_444.chk
#P G4

Frag_444

0 1
C                    -1.8824   -0.1941    0.2773
C                    -0.4673    0.2948    0.1446
N                    -0.2075    1.5638    0.21
C                     0.6252   -0.662    -0.1294
C                     2.0419   -0.1955   -0.2693
O                     0.368    -1.8898   -0.2554
H                    -1.9132   -1.1093    0.9053
H                    -2.288    -0.4287   -0.7288
H                    -2.5285    0.5719    0.7565
H                    -0.9515    2.2782    0.3759
H                     2.3562    0.3329    0.655
H                     2.1247    0.4954   -1.1343
H                     2.7225   -1.0577   -0.4349

