%nproc=32
%mem=180GB
%chk=G4.Frag_827.chk
#P G4

Frag_827

0 1
N                    -1.29763   0.02062  -0.29988
N                    -0.1039    0.55673   0.2966
N                     1.07884  -0.15218   0.15332
O                     1.0222   -1.30594  -0.23432
O                     2.0604    0.45897   0.52345
H                    -1.4208   -0.84213   0.28325
H                    -1.32345  -0.23897  -1.24805
H                    -0.01556   1.50309   0.05053

