%nproc=32
%mem=180GB
%chk=G4.Frag_855.chk
#P G4

Frag_855

0 1
C                     1.7503    0.1644    0.7419
C                     0.9464    0.2346   -0.5663
N                    -0.5227    0.0373   -0.4082
C                    -0.8567   -1.3093    0.1078
C                    -1.1247    1.073     0.4563
N                    -1.1181    0.1798   -1.6826
H                     1.4598    0.9764    1.4388
H                     2.8282    0.296     0.5093
H                     1.6335   -0.8207    1.2367
H                     1.1457    1.2233   -1.0389
H                     1.3606   -0.5336   -1.258
H                    -1.9517   -1.4955    0.0354
H                    -0.572    -1.4187    1.1764
H                    -0.3365   -2.1      -0.4769
H                    -2.236     1.0146    0.4224
H                    -0.822     0.9463    1.5181
H                    -0.8275    2.0915    0.1205
H                    -0.7567   -0.5595   -2.3327

