%nproc=32
%mem=180MB
%chk=G4.Frag_636.chk
#P G4

Frag_636

0 1
N                    -1.6762   -0.1691    0.4655
C                    -0.5501    0.4691    0.3827
O                    -0.5183    1.8286    0.6842
C                     0.7082   -0.2062   -0.0034
N                     1.8331    0.3903    0.2242
O                     0.7205   -1.4592   -0.6195
H                    -1.7804   -1.1903    0.2834
H                    -1.3582    2.3248    0.9588
H                     2.7417   -0.0522   -0.0394
H                    -0.1204   -1.9359   -0.916

