%nproc=32
%mem=180MB
%chk=G4.Frag_726.chk
#P G4

Frag_726

0 1
C                     1.2973    0.0372    0.9673
C                     0.2252   -0.6614    0.122
O                     0.8021   -1.4217   -0.9106
C                    -0.7807    0.3247   -0.4319
N                    -0.422     1.2506   -1.2664
N                    -2.15      0.2451   -0.0307
H                     0.8211    0.5916    1.8042
H                     1.9885   -0.7198    1.3947
H                     1.8891    0.7497    0.3546
H                    -0.3051   -1.3701    0.7936
H                     1.395    -0.826    -1.4384
H                     0.5626    1.3632   -1.5945
H                    -2.4721   -0.4849    0.6428
H                    -2.851     0.9217   -0.4068

