%nproc=32
%mem=180MB
%chk=G4.Frag_1111.chk
#P G4

Frag_1111

0 1
C                     0.8996    0.6208    1.1094
N                     0.5219    0.1227   -0.2231
N                     0.7241   -1.2754   -0.256
C                    -0.9009    0.4297   -0.5003
O                    -1.7563   -0.255     0.3836
O                    -1.2212    0.1064   -1.8302
H                     1.9856    0.4594    1.2787
H                     0.3318    0.0993    1.9116
H                     0.7162    1.7146    1.1806
H                     0.5448   -1.6043   -1.2326
H                     1.7438   -1.4584   -0.1072
H                    -1.0775    1.5214   -0.3605
H                    -1.8293   -1.1925    0.0658
H                    -0.6826    0.7112   -2.4046

