%nproc=32
%mem=180GB
%chk=G4.Frag_779.chk
#P G4

Frag_779

0 1
C                    -1.221     1.5458    0.4579
N                    -0.4507    0.512     0.2965
C                    -0.9508   -0.7004   -0.3627
N                     0.8736    0.5833    0.7688
C                     1.8321   -0.5071    0.6473
H                    -2.2484    1.5452    0.1137
H                    -0.8483    2.4391    0.945
H                    -0.3441   -0.9113   -1.268
H                    -2.0128   -0.5977   -0.6766
H                    -0.8805   -1.5613    0.3345
H                     1.4575   -1.4022    1.1858
H                     2.7972   -0.1958    1.0967
H                     1.9961   -0.7496   -0.4231

