%nproc=32
%mem=180GB
%chk=G4.Frag_437.chk
#P G4

Frag_437

0 1
C                     1.45395  -0.90667   1.36417
C                     0.87874  -0.32597   0.29891
C                     1.68459   0.01765  -0.97248
C                    -0.60665   0.02035   0.28046
C                    -0.79639   1.55177   0.13278
C                    -1.34408  -0.7553   -0.84252
O                    -1.14284  -0.39254   1.52877
H                     0.89202  -1.15639   2.25354
H                     2.51306  -1.14807   1.37729
H                     2.35046  -1.00432  -1.56437
H                     1.08395   0.48919  -1.48786
H                     2.28639   0.83124  -0.88794
H                    -0.35525   1.93027  -0.79126
H                    -0.33412   2.0631    0.97519
H                    -1.86654   1.80193   0.12331
H                    -1.2392   -1.82638  -0.67919
H                    -2.41099  -0.51114  -0.84599
H                    -0.96682  -0.50357  -1.82916
H                    -2.08026  -0.17526   1.53646

