%nproc=32
%mem=180GB
%chk=G4.Frag_611.chk
#P G4

Frag_611

0 1
C                     1.073     0.3267   -0.9708
C                     0.0893    0.0482    0.1774
C                    -0.2874   -1.4423    0.194
C                    -1.1749    0.9056    0.0031
C                     0.7335    0.3958    1.4578
N                     1.239     0.6685    2.4627
H                     1.3613    1.4005   -0.9892
H                     1.9968   -0.2808   -0.8525
H                     0.6117    0.0728   -1.9496
H                    -0.9924   -1.6601    1.0259
H                    -0.7759   -1.7316   -0.7616
H                     0.6174   -2.0746    0.3285
H                    -1.6811    0.6632   -0.9563
H                    -0.9181    1.9875   -0.0017
H                    -1.8923    0.7207    0.8324

