%nproc=32
%mem=180MB
%chk=G4.Frag_1087.chk
#P G4

Frag_1087

0 1
C                     1.8456    0.4703   -0.2617
O                     0.9489   -0.0657    0.6916
C                    -0.3753   -0.21      0.1839
N                    -0.3888   -1.0632   -1.0158
N                    -1.1902   -0.852     1.2208
N                    -0.9527    1.1053   -0.1303
H                     2.1339   -0.3031   -1.005
H                     2.7717    0.779     0.2649
H                     1.4434    1.3721   -0.772
H                    -1.3764   -1.344    -1.2181
H                    -0.0797   -0.5056   -1.8451
H                    -0.7703   -1.7847    1.4417
H                    -1.1303   -0.2833    2.097
H                    -1.9615    0.9818   -0.3794
H                    -0.918     1.703     0.7275

