%nproc=32
%mem=180GB
%chk=G4.Frag_676.chk
#P G4

Frag_676

0 1
C                     2.2611    0.0281   -0.0046
C                     1.0907    0.4187   -0.5225
C                    -0.2287    0.1605    0.1786
C                    -0.5181   -1.3534    0.1981
C                    -1.3551    0.8949   -0.5724
O                    -0.1422    0.6547    1.4946
H                     3.1853    0.2378   -0.5332
H                     2.3083   -0.4957    0.945
H                     1.1033    0.9524   -1.4697
H                    -1.5094   -1.555     0.658
H                    -0.5203   -1.7641   -0.8349
H                     0.2506   -1.8912    0.7929
H                    -1.1624    1.9895   -0.5788
H                    -1.4243    0.5391   -1.6235
H                    -2.3346    0.7182   -0.0781
H                    -1.0044    0.4657    1.9504

