%nproc=32
%mem=180GB
%chk=G4.Frag_729.chk
#P G4

Frag_729

0 1
C                    -1.3299   -0.4035    0.4447
C                     0.0328   -0.065    -0.1919
N                     0.1676    1.386    -0.3774
O                     0.1507   -0.7173   -1.4331
C                     1.149    -0.5541    0.7037
N                     2.3823   -0.4105    0.3714
H                    -2.1598   -0.0396   -0.1979
H                    -1.4366   -1.5034    0.563
H                    -1.4248    0.0744    1.4437
H                    -0.6142    1.7337   -0.9796
H                     0.0717    1.8632    0.5494
H                    -0.5616   -0.3667   -2.0298
H                     0.9189   -1.0396    1.6478
H                     2.6539    0.0423   -0.5139

