%nproc=32
%mem=180GB
%chk=G4.Frag_826.chk
#P G4

Frag_826

0 1
N                     1.16916  -0.78377  -0.46451
C                     0.16847  -0.22421   0.04611
O                     0.02429   1.129     0.17258
O                    -0.84361  -0.97938   0.51427
H                     1.83536  -0.08368  -0.85569
H                    -0.80311   1.38432   0.23366
H                    -1.55057  -0.44238   1.26218

