%nproc=32
%mem=180MB
%chk=G4.Frag_711.chk
#P G4

Frag_711

0 1
C                     1.7343   -0.021     0.1352
C                     0.4517   -0.3183    0.2961
O                    -0.5306    0.5603   -0.1542
N                    -1.8661    0.2626    0.0044
H                     2.4987   -0.7027    0.4846
H                     2.0281    0.9033   -0.3456
H                     0.1713   -1.2467    0.779
H                    -2.4005    1.0899   -0.3432
H                    -2.0869   -0.5272   -0.6441

