%nproc=32
%mem=180GB
%chk=G4.Frag_474.chk
#P G4

Frag_474

0 1
C                     0.77332  -0.9515   -0.54104
C                     0.49872   0.45106  -0.06253
O                     1.5052    1.40177  -0.193
C                    -0.66614   0.82981   0.4886
N                    -1.77075   0.01078   0.59552
H                     1.78665  -1.04876  -0.94099
H                     0.08308  -1.26725  -1.34211
H                     0.68455  -1.68206   0.26501
H                     2.26941   0.9799   -0.59059
H                    -0.79386   1.85787   0.78812
H                    -1.76373  -0.95678   0.73275
H                    -2.60644   0.37505   1.45027

