%nproc=32
%mem=180GB
%chk=G4.Frag_1033.chk
#P G4

Frag_1033

0 1
C                    -0.7801   -1.0689    0.4265
C                    -0.1468    0.2634    0.0244
N                    -0.9037    0.8703   -1.0709
N                     1.2426    0.0449   -0.3858
N                     2.2854    0.1778    0.5411
O                     1.4956   -0.4062   -1.5224
H                    -0.1973   -1.5319    1.2509
H                    -0.7978   -1.7657   -0.4387
H                    -1.8206   -0.9063    0.7796
H                    -0.1715    0.9476    0.9034
H                    -1.8605    1.106    -0.7191
H                    -0.4499    1.7817   -1.311
H                     2.1045    0.4872    1.522

