%nproc=32
%mem=180GB
%chk=G4.Frag_453.chk
#P G4

Frag_453

0 1
C                     1.9304   -0.0517    0.8467
O                     0.5684   -0.3436    1.0975
C                    -0.2686   -0.127    -0.0358
C                    -0.229     1.344    -0.5085
C                    -1.7069   -0.4569    0.402
N                     0.1187   -1.0165   -1.1413
H                     2.5389   -0.5058    1.6553
H                     2.1068    1.044     0.8819
H                     2.2974   -0.4738   -0.1135
H                    -1.0223    1.5348   -1.2631
H                     0.7444    1.5816   -0.9871
H                    -0.3845    2.0298    0.3517
H                    -2.0192    0.2091    1.2352
H                    -2.4199   -0.3293   -0.441
H                    -1.7685   -1.5079    0.7574
H                     0.0809   -2.0087   -0.8111
H                    -0.567    -0.9221   -1.9264

