%nproc=32
%mem=180GB
%chk=G4.Frag_1052.chk
#P G4

Frag_1052

0 1
C                     0.4614    1.6086   -0.1012
C                     0.5685    0.0698   -0.2393
C                     1.7419   -0.4205    0.6417
O                     0.844    -0.251    -1.5847
C                    -0.7629   -0.6608    0.1732
C                    -1.9718   -0.1815   -0.6592
O                    -1.0371   -0.4811    1.5489
O                    -0.6247   -2.0391   -0.0879
H                     0.212     1.9085    0.9374
H                    -0.2974    2.0215   -0.7967
H                     1.4298    2.0874   -0.3619
H                     1.9294   -1.5032    0.484
H                     2.6786    0.1176    0.3808
H                     1.5333   -0.2432    1.7183
H                     1.6945    0.1923   -1.8442
H                    -2.2362    0.872    -0.4328
H                    -2.8598   -0.8053   -0.4208
H                    -1.765    -0.2766   -1.7463
H                    -1.3467    0.4499    1.6933
H                    -0.1918   -2.4651    0.6973

