%nproc=32
%mem=180GB
%chk=G4.Frag_790.chk
#P G4

Frag_790

0 1
C                    -1.01506  -0.53908  -1.12811
C                    -0.10407   0.02406  -0.06495
C                     0.4104    1.43023  -0.44748
C                    -0.90494   0.08019   1.26888
C                     1.11946  -0.87613  -0.00523
N                     2.02867  -0.62781   1.07832
H                    -1.39119  -1.55189  -0.89029
H                    -1.9025    0.08859  -1.22201
H                    -0.45984  -0.58185  -2.09677
H                    -0.43235   2.08148  -0.52046
H                     0.93326   1.43529  -1.4073
H                     1.11159   1.84158   0.29932
H                    -1.25992  -0.9147    1.55269
H                    -0.26704   0.41532   2.0483
H                    -1.7872    0.77071   1.20922
H                     1.15189  -1.74531  -1.00584
H                     2.76895  -1.33076   0.8966

