%nproc=32
%mem=180MB
%chk=G4.Frag_579.chk
#P G4

Frag_579

0 1
C                    -1.4593   -1.0656    0.7424
C                    -0.6114   -0.2696   -0.2646
C                    -1.2186    1.135    -0.4423
C                     0.9022   -0.2569    0.1369
C                     1.7598    0.4922   -0.902
O                     1.0843    0.3225    1.4131
O                     1.3754   -1.5838    0.1603
H                    -1.1336   -2.1259    0.7796
H                    -2.5274   -1.0616    0.4361
H                    -1.3812   -0.6246    1.759
H                    -0.6993   -0.7882   -1.2457
H                    -1.177     1.7156    0.5026
H                    -0.7004    1.6964   -1.2457
H                    -2.2838    1.0512   -0.7469
H                     1.5517    1.5822   -0.8982
H                     2.8371    0.358    -0.6655
H                     1.5736    0.0914   -1.9214
H                     0.9154    1.2973    1.3439
H                     1.1924   -1.9655    1.0584

