%nproc=32
%mem=180GB
%chk=G4.Frag_833.chk
#P G4

Frag_833

0 1
C                    -0.9823   -0.042    -0.0318
N                     0.1135   -0.7231   -0.127
C                     1.3672   -0.1113    0.0137
N                     2.4022    0.3932    0.1298
H                    -0.9661    1.025     0.1602
H                    -1.9346   -0.5417   -0.145

