%nproc=32
%mem=180MB
%chk=G4.Frag_567.chk
#P G4

Frag_567

0 1
N                     0.9858   -0.9164   -1.5199
C                     0.4513   -0.1356   -0.6331
N                     0.9486    1.1987   -0.5014
C                    -0.6702   -0.614     0.2098
N                    -1.0211    0.0503    1.4259
O                    -1.3246   -1.633    -0.1396
H                     0.6688   -1.9002   -1.6713
H                     0.4622    1.9103    0.0858
H                     1.7733    1.508    -1.0628
H                    -1.8486   -0.2724    1.9749
H                    -0.4254    0.8042    1.8317

