%nproc=32
%mem=180MB
%chk=G4.Frag_872.chk
#P G4

Frag_872

0 1
C                     1.5074   -0.5861    0.354
C                     0.1958   -0.0003   -0.1636
N                     0.2582    1.4615   -0.1122
O                    -0.853    -0.4647    0.6573
N                    -1.9975   -0.3637   -0.068
H                     2.3544   -0.2588   -0.286
H                     1.6926   -0.2534    1.3979
H                     1.4588   -1.6956    0.3338
H                     0.0736   -0.34     -1.2222
H                    -0.6352    1.8439   -0.4978
H                     1.0114    1.7821   -0.7638
H                    -2.3998   -1.3259   -0.1317
H                    -2.6666    0.2009    0.5023

