%nproc=32
%mem=180GB
%chk=G4.Frag_861.chk
#P G4

Frag_861

0 1
C                    -1.3467   -0.8677   -0.1448
C                    -0.5326    0.3716   -0.3918
N                    -1.1225    1.5033   -0.6214
N                     0.9016    0.3248   -0.322
N                     1.5641   -0.8799   -0.0264
O                     1.6241    1.4411   -0.5935
H                    -2.3991   -0.7316   -0.4727
H                    -1.3361   -1.1064    0.939
H                    -0.9181   -1.7208   -0.711
H                    -2.1625    1.5938   -0.6606
H                     1.3838   -1.0921    0.9812
H                     2.5932   -0.7185   -0.1166
H                     1.7508    1.8825    0.2852

