%nproc=32
%mem=180GB
%chk=G4.Frag_739.chk
#P G4

Frag_739

0 1
N                     1.6894    1.0379   -0.1318
C                     0.8546   -0.1607   -0.0461
N                     0.6672   -0.7155   -1.3905
C                    -0.4872    0.176     0.6663
N                    -1.3573   -0.9963    0.8146
N                    -1.1984    1.2634   -0.0128
H                     1.9309    1.3429    0.8394
H                     2.5939    0.7733   -0.586
H                     1.3924   -0.9191    0.5689
H                     0.0681   -0.082    -1.9656
H                     0.2059   -1.6508   -1.3264
H                    -0.2292    0.5279    1.6909
H                    -0.8099   -1.7756    1.247
H                    -1.6904   -1.3194   -0.1217
H                    -1.6729    0.8967   -0.869
H                    -1.9572    1.6013    0.6229

