%nproc=32
%mem=180GB
%chk=G4.Frag_465.chk
#P G4

Frag_465

0 1
C                    -1.4434   -0.8292   -0.0754
C                    -0.4334    0.0398    0.0586
C                    -0.7385    1.4702    0.402
N                     0.9261   -0.3512   -0.2317
C                     1.4157   -1.4799    0.1902
N                     1.7636    0.5139   -0.9532
H                    -1.2655   -1.8507   -0.3854
H                    -2.4673   -0.5241    0.1029
H                     0.1557    1.9564    0.8455
H                    -1.0329    2.0197   -0.5166
H                    -1.5633    1.5305    1.1442
H                     2.4414   -1.7512   -0.0292
H                     0.8243   -2.1651    0.7857
H                     1.4174    1.4209   -1.3377

