%nproc=32
%mem=180MB
%chk=G4.Frag_1155.chk
#P G4

Frag_1155

0 1
C                    -1.2143   -0.2335   -0.1761
C                    -0.0748    0.7294    0.1667
N                     1.0632    0.0397    0.7794
O                     1.6236   -0.7738   -0.1499
H                    -0.8761   -0.9897   -0.9155
H                    -2.0605    0.3356   -0.6153
H                    -1.5721   -0.7497    0.7399
H                    -0.4537    1.4956    0.8764
H                     0.2568    1.2578   -0.754
H                     0.72     -0.5652    1.5613
H                     2.5878   -0.546    -0.1336

