%nproc=32
%mem=180GB
%chk=G4.Frag_1035.chk
#P G4

Frag_1035

0 1
C                     1.0227   -0.4762   -1.2723
C                     0.5591   -0.1452    0.1725
C                     0.7968   -1.4156    1.0388
C                     1.5098    0.956     0.7241
N                    -0.8911    0.2992    0.2359
C                    -1.8514   -0.7353   -0.2168
C                    -1.166     1.5447   -0.5194
O                    -1.2       0.5643    1.5335
H                     0.9575    0.4056   -1.9407
H                     2.0876   -0.796    -1.269
H                     0.4414   -1.3108   -1.713
H                     1.881    -1.6515    1.1093
H                     0.3163   -2.3117    0.5949
H                     0.4152   -1.2765    2.0721
H                     2.5502    0.5745    0.814
H                     1.562     1.8319    0.0452
H                     1.1894    1.2985    1.7305
H                    -2.8987   -0.3766   -0.0979
H                    -1.783    -1.6582    0.3936
H                    -1.7139   -0.9852   -1.2892
H                    -0.5639    2.3969   -0.1445
H                    -2.2285    1.8528   -0.3938
H                    -0.9925    1.4144   -1.6077

