%nproc=32
%mem=180MB
%chk=G4.Frag_776.chk
#P G4

Frag_776

0 1
C                    -0.8099   -0.3743   -0.5442
N                     0.2146    0.5587   -0.0595
N                     1.3806   -0.1473    0.3078
O                    -0.2636    1.1553    1.0612
H                    -0.4352   -0.9251   -1.4332
H                    -1.0976   -1.1025    0.2464
H                    -1.7137    0.1941   -0.8505
H                     1.1377   -0.9298    0.9614
H                     1.8042   -0.5554   -0.5573
H                    -0.217     2.1262    0.8679

