%nproc=32
%mem=180MB
%chk=G4.Frag_552.chk
#P G4

Frag_552

0 1
C                    -1.5214   -0.323     0.6924
C                    -0.5147    0.3281    0.0877
C                    -0.7991    1.6422   -0.5919
C                     0.8878   -0.2445    0.0973
N                     0.9288   -1.4784   -0.6895
O                     1.2876   -0.4932    1.4213
H                    -1.353    -1.2675    1.2005
H                    -2.528     0.0851    0.6903
H                    -1.5599    1.4959   -1.3878
H                     0.1129    2.0686   -1.0588
H                    -1.1859    2.3725    0.1501
H                     1.5878    0.4913   -0.3619
H                     0.4639   -2.2444   -0.1497
H                     1.9297   -1.7589   -0.8061
H                     2.2635   -0.6737    1.3954

