%nproc=32
%mem=180GB
%chk=G4.Frag_1030.chk
#P G4

Frag_1030

0 1
N                    -1.6558   -0.1285    0.5078
C                    -0.3191   -0.5888    0.7111
O                    -0.1244   -1.7475    1.166
N                     0.799     0.2527    0.4026
O                     0.6073    1.5104   -0.0638
O                     2.0613   -0.1888    0.6213
H                    -2.4646   -0.7486    0.7351
H                    -1.8463    0.8263    0.1317
H                     0.6057    1.4181   -1.0508
H                     2.3371   -0.6052   -0.235

