%nproc=32
%mem=180GB
%chk=G4.Frag_985.chk
#P G4

Frag_985

0 1
C                     0.9398   -0.4578    0.0578
N                    -0.3242    0.2691   -0.0022
N                    -1.4126   -0.3428   -0.251
N                    -0.3405    1.6531    0.2159
H                     0.8916   -1.2302    0.8543
H                     1.1382   -0.9479   -0.9188
H                     1.7766    0.2368    0.2847
H                    -1.4356   -1.3744   -0.4185
H                    -1.2333    2.1941    0.1779

