%nproc=32
%mem=180GB
%chk=G4.Frag_744.chk
#P G4

Frag_744

0 1
C                     2.0278    0.224     0.0701
C                     0.7791   -0.6581   -0.0768
N                    -0.4803    0.0151    0.331
C                    -0.7733    1.2035   -0.4943
C                    -1.6032   -0.9376    0.2508
O                    -0.3711    0.4107    1.6261
H                     2.025     1.0425   -0.6788
H                     2.9338   -0.3926   -0.1096
H                     2.0972    0.6517    1.0919
H                     0.7105   -0.9979   -1.1351
H                     0.9393   -1.5658    0.5487
H                    -1.7724    1.6239   -0.2424
H                    -0.7631    0.9476   -1.5771
H                    -0.0336    2.0112   -0.3082
H                    -1.7536   -1.2869   -0.7952
H                    -1.4144   -1.8252    0.895
H                    -2.5476   -0.4664    0.6038

