%nproc=32
%mem=180GB
%chk=G4.Frag_624.chk
#P G4

Frag_624

0 1
N                    -0.7647   -1.2967   -0.5081
C                    -0.2632    0.0573   -0.2726
N                    -1.116     0.7578    0.6897
C                     1.1444   -0.0137    0.241
O                     1.3785   -0.4773    1.3897
O                     2.1971    0.4152   -0.5615
H                    -0.9291   -1.7651    0.4134
H                    -1.6924   -1.2271   -0.9862
H                    -0.2629    0.6137   -1.2379
H                    -0.7681    1.7405    0.781
H                    -2.0775    0.8278    0.2839
H                     3.154     0.3676   -0.2325

