%nproc=32
%mem=180GB
%chk=G4.Frag_1013.chk
#P G4

Frag_1013

0 1
C                    -0.88366   0.34126  -0.00715
N                     0.35584  -0.2753    0.37633
C                     1.41129  -0.42097  -0.34769
N                     2.32823  -0.54024  -1.05377
H                    -1.36339  -0.16477  -0.7982
H                    -1.59198   0.34306   0.73287
H                    -0.67933   1.32067  -0.28618
H                     0.4228   -0.60352   1.85888

