%nproc=32
%mem=180MB
%chk=G4.Frag_713.chk
#P G4

Frag_713

0 1
N                     1.5289   -0.1439    0.4136
C                     0.3625    0.3043   -0.2747
O                     0.4807    0.9941   -1.3223
N                    -0.9362   -0.0275    0.221
O                    -2.0498    0.4041   -0.418
H                     2.4792    0.0968    0.0539
H                     1.4452   -0.7165    1.2825
H                    -1.0341   -0.5884    1.0967
H                    -2.2763   -0.323    -1.0526

