%nproc=32
%mem=180GB
%chk=G4.Frag_443.chk
#P G4

Frag_443

0 1
C                    -1.156    -1.24693   0.60013
C                    -0.48395  -0.01217   0.04711
C                    -1.31065   1.18488  -0.36001
C                     0.86294   0.02171  -0.08402
N                     1.54872   1.11637  -0.53712
N                     1.68553  -1.03501   0.22226
H                    -0.83786  -1.49568   1.6257
H                    -0.98041  -2.14959  -0.00756
H                    -2.24061  -1.11168   0.64564
H                    -1.20896   1.44418  -1.42647
H                    -2.37461   0.9956   -0.19634
H                    -1.06637   2.09811   0.20678
H                     1.04718   1.93391  -1.05081
H                     2.54566   1.1215   -0.96637
H                     2.67997  -0.99005   0.45765
H                     1.28942  -1.87513   0.82333

