%nproc=32
%mem=180GB
%chk=G4.Frag_596.chk
#P G4

Frag_596

0 1
C                     1.3721   -1.3288    0.1903
C                     0.8508   -0.1081    0.042
O                     1.4967    0.9985    0.5955
C                    -0.4576    0.0893   -0.6862
C                    -1.6253    0.1386    0.3044
O                    -0.4163    1.2549   -1.4716
H                     0.8758   -2.202    -0.2145
H                     2.3029   -1.4689    0.7245
H                     2.3698    0.912     1.1033
H                    -0.6344   -0.7656   -1.3759
H                    -1.4894    0.9681    1.0312
H                    -1.6938   -0.8202    0.8616
H                    -2.5777    0.2959   -0.2448
H                    -0.3737    2.0363   -0.8597

