%nproc=32
%mem=180GB
%chk=G4.Frag_1123.chk
#P G4

Frag_1123

0 1
C                     1.8377   -0.7646   -0.839
C                     0.9045    0.1835   -0.6706
N                    -0.0728    0.1255    0.4018
C                    -1.0199   -0.9836    0.1909
C                    -0.7974    1.4039    0.5038
O                     0.5772   -0.0776    1.5774
H                     1.8975   -1.6191   -0.1728
H                     2.5543   -0.6826   -1.6498
H                     0.9071    1.0218   -1.3649
H                    -1.5506   -0.8708   -0.781
H                    -1.7774   -1.0136    1.0054
H                    -0.4925   -1.9626    0.1925
H                    -1.3674    1.6138   -0.4291
H                    -0.0871    2.2427    0.6798
H                    -1.513     1.3834    1.3558

