%nproc=32
%mem=180MB
%chk=G4.Frag_672.chk
#P G4

Frag_672

0 1
C                    -1.8081   -0.7189    0.3796
N                    -0.849     0.4059    0.377
N                    -1.3503    1.4642   -0.4186
C                     0.5369    0.0616   -0.0554
C                     1.4498    1.2735    0.234
C                     1.0924   -1.1413    0.7463
N                     0.5807   -0.2305   -1.4988
H                    -1.5467   -1.45      1.1717
H                    -2.8266   -0.3477    0.6238
H                    -1.8537   -1.2278   -0.6051
H                    -2.1376    1.9145    0.1019
H                    -1.7248    1.0937   -1.3246
H                     2.5103    1.0396   -0.0033
H                     1.3832    1.5604    1.3057
H                     1.1535    2.1479   -0.3834
H                     0.9698   -0.9689    1.8373
H                     2.1725   -1.2917    0.5319
H                     0.5738   -2.0835    0.4713
H                     1.5755   -0.3648   -1.7952
H                     0.0987   -1.1362   -1.696

