%nproc=32
%mem=180GB
%chk=G4.Frag_987.chk
#P G4

Frag_9871

0 1
C                    -1.63342   0.45537  -0.71529
C                    -0.32342   0.05062  -0.21891
C                     0.76119  -0.2772    0.18976
N                     2.00756  -0.62197   0.58225
H                    -1.72355   0.187    -1.83777
H                    -2.42109  -0.01034  -0.37818
H                    -1.84603   1.56184  -0.31067
H                     2.04571  -1.65967   1.28477
H                     2.47396  -0.06234   0.90005

