%nproc=32
%mem=180GB
%chk=G4.Frag_832.chk
#P G4

Frag_832

0 1
C                    -1.6485    0.5521    0.0772
C                    -0.5228   -0.2454   -0.6171
C                    -0.8329   -1.755    -0.5161
N                     0.8548    0.1014   -0.1358
C                     1.1841    1.5185   -0.3966
C                     1.0858   -0.2066    1.2914
O                     1.7437   -0.635    -0.8537
H                    -1.5242    1.6433   -0.0714
H                    -2.629     0.2791   -0.3685
H                    -1.6989    0.3274    1.1621
H                    -0.5857    0.0028   -1.7022
H                    -0.9686   -2.0706    0.5393
H                    -1.7754   -1.9811   -1.0595
H                    -0.0286   -2.3637   -0.9786
H                     0.9419    1.7977   -1.4458
H                     2.2716    1.7018   -0.245
H                     0.6378    2.1985    0.2922
H                     0.9371   -1.2859    1.5023
H                     0.4217    0.39      1.9514
H                     2.1359    0.0306    1.5744

