%nproc=32
%mem=180MB
%chk=G4.Frag_1044.chk
#P G4

Frag_1044

0 1
C                     1.3645    0.433     0.5916
C                     0.2948   -0.1667   -0.3362
O                     0.5219   -1.55     -0.4734
O                     0.3917    0.4609   -1.5933
C                    -1.1256    0.0525    0.2471
O                    -1.4002    1.4238    0.3729
O                    -1.2353   -0.5418    1.5147
H                     1.347    -0.0647    1.5845
H                     2.374     0.2918    0.1498
H                     1.1986    1.5226    0.7301
H                     1.3713   -1.6636   -0.9756
H                    -0.2112   -0.0265   -2.2141
H                    -1.8792   -0.4104   -0.4381
H                    -1.6491    1.7546   -0.5296
H                    -1.3633   -1.5156    1.3694

