%nproc=32
%mem=180GB
%chk=G4.Frag_660.chk
#P G4

Frag_660

0 1
C                    -1.5219    0.8641    0.0444
N                    -0.6064   -0.1635    0.5736
C                    -0.9447   -1.4844    0.0119
C                     0.8428    0.1808    0.4524
C                     1.3538    0.1548   -1.0092
O                     1.598    -0.762     1.171
O                     1.0891    1.4467    1.0289
H                    -1.3874    1.8245    0.5829
H                    -1.3802    1.0192   -1.0453
H                    -2.5768    0.5589    0.2166
H                    -0.9518   -1.4627   -1.0998
H                    -0.2308   -2.261     0.3584
H                    -1.9528   -1.7924    0.3628
H                     2.4192    0.4688   -1.033
H                     1.3      -0.8688   -1.4347
H                     0.7836    0.8489   -1.6586
H                     1.2909   -0.723     2.1149
H                     0.8754    2.1512    0.3629

