%nproc=32
%mem=180GB
%chk=G4.Frag_612.chk
#P G4

Frag_612

0 1
C                     0.86429  -0.55044   1.67647
C                     0.77277  -0.03879   0.22644
C                     1.32519  -1.15152  -0.69678
N                     1.6184    1.18528   0.16037
C                    -0.70479   0.35414  -0.16691
C                    -0.88093   0.46351  -1.691
C                    -1.72073  -0.6923    0.35061
N                    -0.97727   1.7049    0.38332
H                     0.40656   0.14213   2.38855
H                     0.40103  -1.54271   1.80578
H                     1.91839  -0.61798   1.95167
H                     2.31292  -1.45387  -0.33344
H                     1.43239  -0.79829  -1.72898
H                     0.70082  -2.05422  -0.712
H                     2.48909   1.13967  -0.0212
H                     1.19647   1.5845   -0.49713
H                    -0.8608   -0.51617  -2.19067
H                    -0.10496   1.10745  -2.1508
H                    -1.85385   0.9274   -1.89514
H                    -1.48787  -1.71764   0.00565
H                    -2.72109  -0.42851  -0.02379
H                    -1.77435  -0.70435   1.44721
H                    -0.69239   1.63321   1.17413
H                    -2.07938   2.03449   0.53776

