%nproc=32
%mem=180GB
%chk=G4.Frag_538.chk
#P G4

Frag_538

0 1
C                    -0.7024   -0.0913    1.6497
C                    -0.2657    0.017     0.1747
C                    -0.8336    1.3223   -0.4194
C                    -0.832    -1.1909   -0.6003
C                     1.285     0.0295    0.1146
N                     1.777     0.1665   -1.2565
H                    -1.8109   -0.0986    1.7335
H                    -0.3167    0.7694    2.238
H                    -0.3134   -1.0274    2.1057
H                    -0.43      2.206     0.1205
H                    -0.5679    1.4179   -1.4939
H                    -1.942     1.3396   -0.3376
H                    -0.3924   -2.1391   -0.2224
H                    -1.936    -1.2474   -0.4835
H                    -0.6127   -1.1083   -1.6859
H                     1.6954   -0.9023    0.5667
H                     1.6664    0.8829    0.7197
H                     2.7887    0.4267   -1.2085
H                     1.7433   -0.7726   -1.7151

