%nproc=32
%mem=180MB
%chk=G4.Frag_1057.chk
#P G4

Frag_1057

0 1
C                     0.2752   -1.3145    0.6715
C                    -0.0424    0.0748    0.0752
C                    -0.9796   -0.0797   -1.1395
C                    -0.754     0.929     1.1407
N                     1.1938    0.7697   -0.3312
O                     1.849     0.0288   -1.2611
H                    -0.6556   -1.8116    1.0206
H                     0.7519   -1.9725   -0.086
H                     0.9664   -1.2187    1.5363
H                    -1.9472   -0.5337   -0.8341
H                    -1.1836    0.9117   -1.5983
H                    -0.5232   -0.7341   -1.9125
H                    -1.7075    0.4538    1.458
H                    -0.1093    1.0503    2.0379
H                    -0.9807    1.9398    0.738
H                     1.8324    0.8509    0.4945
H                     2.0145    0.6561   -2.01

