%nproc=32
%mem=180MB
%chk=G4.Frag_514.chk
#P G4

Frag_514

0 1
C                    -1.6708    0.0892   -0.7423
C                    -0.7199    0.5617    0.0618
O                    -1.0856    1.3098    1.1787
C                     0.7321    0.2683   -0.2026
C                     1.1652   -1.0018    0.521
H                    -2.713     0.2963   -0.5357
H                    -1.4223   -0.51     -1.6096
H                    -0.3896    1.6682    1.8217
H                     0.9172    0.1543   -1.2934
H                     1.3508    1.1198    0.1535
H                     1.0187   -0.8905    1.6167
H                     0.5764   -1.8716    0.1584
H                     2.2409   -1.1938    0.3237

