%nproc=32
%mem=180MB
%chk=G4.Frag_997.chk
#P G4

Frag_997

0 1
C                     1.8682   -1.1347    0.5686
C                     1.2167   -0.1399   -0.0407
O                     1.9645    0.7018   -0.8684
C                    -0.2998    0.0182    0.112
C                    -0.7561    1.4651   -0.1859
C                    -0.9909   -0.9422   -0.8715
N                    -0.6989   -0.3344    1.4839
H                     1.3525   -1.8545    1.1912
H                     2.9366   -1.2482    0.4353
H                     1.5569    1.4368   -1.4295
H                    -0.1606    2.1911    0.4085
H                    -1.8269    1.5975    0.08
H                    -0.6573    1.7095   -1.2647
H                    -0.727    -1.9957   -0.6355
H                    -0.6774   -0.7257   -1.9159
H                    -2.0957   -0.8393   -0.8078
H                    -0.2676    0.3443    2.1542
H                    -1.7372   -0.2496    1.5861

