%nproc=32
%mem=180GB
%chk=G4.Frag_756.chk
#P G4

Frag_756

0 1
C                    -0.82961   1.12675  -0.55677
C                     0.00719  -0.00476   0.00244
C                    -0.68226  -1.21586   0.61199
C                     1.32498   0.07034  -0.04442
N                     2.51201   0.1382   -0.08701
H                    -0.20739   1.92338  -0.97548
H                    -1.47924   1.5777    0.20055
H                    -1.48532   0.7682   -1.36941
H                    -1.76636  -1.07462   0.55363
H                    -0.43725  -1.34703   1.67967
H                    -0.45336  -2.15669   0.10688
H                     3.4966    0.1944   -0.12217

