%nproc=32
%mem=180GB
%chk=G4.Frag_521.chk
#P G4

Frag_521

0 1
C                    -1.80075  -0.02543   0.01886
N                    -0.41036   0.47361  -0.00649
N                     0.41036  -0.47361   0.00649
C                     1.80075   0.02543  -0.01886
H                    -2.05442  -0.26376   1.07753
H                    -1.9164   -0.95127  -0.59268
H                    -2.47534   0.77481  -0.33289
H                     2.47534  -0.77481   0.33289
H                     2.05442   0.26376  -1.07753
H                     1.9164    0.95127   0.59268

