%nproc=32
%mem=180MB
%chk=G4.Frag_502.chk
#P G4

Frag_502

0 1
C                     1.8601   -0.201     0.6529
N                     0.7216   -0.3622   -0.2588
C                     0.699     0.6981   -1.2875
N                    -0.4811   -0.4882    0.499
C                    -1.4157   -1.3706   -0.209
C                    -1.1203    0.7921    0.8665
H                     1.8296    0.7809    1.1721
H                     1.8548   -1.0118    1.4127
H                     2.8119   -0.2776    0.0851
H                     0.7378    1.713    -0.8352
H                     1.5805    0.5837   -1.9534
H                    -0.2043    0.6093   -1.9251
H                    -0.9111   -2.3256   -0.4699
H                    -1.7967   -0.8973   -1.1392
H                    -2.2772   -1.6136    0.4491
H                    -1.9162    0.6039    1.6179
H                    -1.5864    1.2882   -0.0126
H                    -0.3861    1.4789    1.3352

