%nproc=32
%mem=180MB
%chk=G4.Frag_522.chk
#P G4

Frag_522

0 1
C                    -0.6822   -1.0077   -0.5137
N                     0.0368    0.2766   -0.4299
N                    -0.8862    1.3424   -0.3281
C                     0.9184    0.3132    0.7481
O                     1.9735   -0.5973    0.5964
H                    -1.3697   -1.0009   -1.3863
H                     0.0386   -1.839    -0.6659
H                    -1.2733   -1.2049    0.4081
H                    -1.3805    1.4337   -1.2454
H                    -1.5997    1.1372    0.4122
H                     0.354     0.0634    1.6742
H                     1.3361    1.3383    0.8784
H                     2.534    -0.2548   -0.148

