%nproc=32
%mem=180GB
%chk=G4.Frag_772.chk
#P G4

Frag_772

0 1
C                     1.8859    0.1071   -0.2879
C                     0.6966    0.0396   -0.1044
C                    -0.6966   -0.0396    0.1107
C                    -1.8859   -0.1071    0.2942
H                     2.9302    0.1664   -0.4491
H                    -2.9302   -0.1664    0.4554

