%nproc=32
%mem=180GB
%chk=G4.Frag_562.chk
#P G4

Frag_562

0 1
C                     2.0553   -0.5016    0.4786
C                     0.9624    0.0399   -0.0677
N                     1.1053    1.016    -1.1079
C                    -0.4175   -0.3726    0.4067
C                    -1.1692    0.8253    0.9968
C                    -1.2147   -1.0132   -0.7346
H                     3.0428   -0.2105    0.1436
H                     1.9836   -1.2413    1.266
H                     0.2693    1.4549   -1.5521
H                     2.0492    1.3105   -1.4455
H                    -0.3314   -1.135     1.2139
H                    -0.5775    1.2774    1.8214
H                    -2.1451    0.4944    1.4121
H                    -1.3594    1.6003    0.2243
H                    -1.406    -0.2836   -1.5498
H                    -2.1916   -1.3823   -0.3552
H                    -0.6556   -1.8786   -1.1506

