%nproc=32
%mem=180MB
%chk=G4.Frag_777.chk
#P G4

Frag_777

0 1
C                    -1.3596   -0.3042   -0.1576
C                    -0.551     0.9544   -0.2177
O                    -1.124     2.0493   -0.4587
N                     0.865     0.9401   -0.0063
N                     1.5819   -0.2353    0.2675
H                    -2.4324   -0.0872   -0.3473
H                    -1.0008   -1.0182   -0.9277
H                    -1.2632   -0.7648    0.8474
H                     1.2229   -0.6559    1.1543
H                     2.5886    0.0187    0.3801
H                     1.4725   -0.8969   -0.5341

