%nproc=32
%mem=180MB
%chk=G4.Frag_592.chk
#P G4

Frag_592

0 1
C                    -1.3972   -0.8492   -0.0822
C                    -0.2666    0.084    -0.5416
N                    -0.5672    1.4796   -0.2085
C                     1.0926   -0.339     0.0505
O                     2.1092    0.4929   -0.4487
O                     1.0711   -0.304     1.457
H                    -1.1733   -1.8963   -0.3778
H                    -2.3534   -0.5497   -0.5612
H                    -1.5228   -0.806     1.0206
H                    -0.1889   -0.0018   -1.6491
H                    -1.3919    1.7852   -0.775
H                    -0.846     1.5494    0.7974
H                     1.2975   -1.3867   -0.2682
H                     2.9684    0.0974   -0.1472
H                     1.1685    0.6442    1.7339

