%nproc=32
%mem=180MB
%chk=G4.Frag_685.chk
#P G4

Frag_685

0 1
N                    -1.7947   -0.0304    0.2251
C                    -0.5538   -0.3883    0.3249
C                     0.5311    0.3765   -0.3144
O                     0.2768    1.4126   -0.984
O                     1.8522   -0.0409   -0.1835
H                    -2.0945    0.8148   -0.3106
H                    -0.309    -1.2748    0.8947
H                     2.0919   -0.8696    0.3478

