%nproc=32
%mem=180MB
%chk=G4.Frag_867.chk
#P G4

Frag_867

0 1
C                     2.0784    0.2953   -0.6647
N                     0.9325   -0.3066   -0.5576
O                     0.7528   -1.5131   -1.1977
C                    -0.1705    0.2664    0.2261
C                    -0.5468   -0.6795    1.3695
C                    -1.3748    0.5315   -0.6811
H                     2.2645    1.2453   -0.1787
H                     2.8758   -0.1477   -1.2483
H                     0.13      1.2391    0.6792
H                    -0.9034   -1.6545    0.9735
H                     0.3384   -0.8582    2.0163
H                    -1.3497   -0.229     1.9913
H                    -1.0824    1.2198   -1.5024
H                    -1.7505   -0.4155   -1.1244
H                    -2.1945    1.0067   -0.101

