%nproc=32
%mem=180GB
%chk=G4.Frag_916.chk
#P G4

Frag_916

0 1
C                    -0.0306    1.4944   -0.389
C                    -0.2133    0.0467    0.1143
C                    -1.2773    0.0518    1.2288
C                    -0.7063   -0.8518   -1.0428
N                     1.0522   -0.4651    0.6845
N                     2.0548   -0.5025   -0.3064
H                     0.6573    1.5318   -1.2602
H                    -1.0038    1.9244   -0.7107
H                     0.3883    2.1335    0.4178
H                    -2.2445    0.4515    0.8538
H                    -1.451    -0.9783    1.6083
H                    -0.9418    0.6825    2.0804
H                    -1.6888   -0.4961   -1.4219
H                     0.0111   -0.8397   -1.8907
H                    -0.8233   -1.9017   -0.6984
H                     0.8916   -1.4459    1.0205
H                     2.5748    0.4023   -0.2482
H                     2.7506   -1.2378   -0.0401

