%nproc=32
%mem=180GB
%chk=G4.Frag_897.chk
#P G4

Frag_897

0 1
C                    -1.1008   -0.7253   -0.8286
C                    -0.6526    0.4111    0.1139
N                    -0.7327    1.6895   -0.5929
N                     0.7207    0.2396    0.6608
C                     1.7318   -0.1466   -0.3327
N                     0.7521   -0.6765    1.7367
H                    -2.1714   -0.5881   -1.0907
H                    -0.9993   -1.7189   -0.3488
H                    -0.5175   -0.7136   -1.7733
H                    -1.3761    0.4431    0.9618
H                    -0.4576    2.4473    0.0738
H                    -1.733     1.87     -0.8415
H                     2.7438   -0.0426    0.1127
H                     1.5986   -1.202    -0.6561
H                     1.6826    0.5233   -1.2176
H                     0.2645   -1.564     1.4777
H                     0.2469   -0.2462    2.5449

