%nproc=32
%mem=180GB
%chk=G4.Frag_944.chk
#P G4

Frag_944

0 1
N                    -1.7289   -0.3572    0.3283
C                    -0.4783   -0.1823   -0.4001
O                     0.5382    0.2117    0.4887
N                     1.6611    0.3525   -0.2612
H                    -1.5729   -1.0696    1.0782
H                    -1.9589    0.5459    0.8034
H                    -0.2138   -1.1471   -0.8908
H                    -0.6294    0.5923   -1.1866
H                     1.9995    1.3305   -0.1166
H                     2.3834   -0.2765    0.1567

