%nproc=32
%mem=180MB
%chk=G4.Frag_1141.chk
#P G4

Frag_1141

0 1
C                     1.622    -0.1157    0.3356
C                     0.389     0.7398    0.3106
N                    -0.7529    0.3314   -0.1778
C                    -0.9288   -1.0065   -0.7473
N                    -1.8606    1.1946   -0.1636
H                     1.4408   -1.0303    0.9377
H                     2.4588    0.4496    0.7967
H                     1.9137   -0.3964   -0.6977
H                     0.4702    1.7398    0.7217
H                    -0.2498   -1.1463   -1.615
H                    -0.7232   -1.7808    0.022
H                    -1.9731   -1.1418   -1.1017
H                    -1.8061    2.1625    0.2273

