%nproc=32
%mem=180MB
%chk=G4.Frag_1095.chk
#P G4

Frag_1095

0 1
C                    -1.1453   -0.408    -0.7371
C                    -0.3172    0.545     0.1444
O                    -0.4479    0.1808    1.4976
O                    -0.7979    1.858    -0.0149
N                     1.1032    0.5123   -0.2606
N                     1.7863   -0.6022    0.2721
H                    -0.9164   -1.4688   -0.5064
H                    -2.2295   -0.2459   -0.5568
H                    -0.9355   -0.22     -1.8118
H                    -1.3966    0.3259    1.7536
H                    -0.6293    2.1265   -0.9565
H                     2.7284   -0.6366   -0.177
H                     1.2818   -1.4899    0.0515
H                     1.916    -0.477     1.3019

