%nproc=32
%mem=180MB
%chk=G4.Frag_795.chk
#P G4

Frag_795

0 1
C                     2.0965   -0.5621    0.6222
N                     1.1028    0.2387    0.7986
C                    -0.0952    0.2569   -0.0278
C                    -0.8313   -1.0978    0.0558
C                    -1.0138    1.3635    0.51
N                     0.2601    0.571    -1.4194
H                     2.1014   -1.2978   -0.1757
H                     2.9516   -0.507     1.2863
H                    -1.7862   -1.0579   -0.5113
H                    -1.058    -1.3498    1.1141
H                    -0.213    -1.9135   -0.374
H                    -0.5035    2.3487    0.4463
H                    -1.9544    1.4175   -0.0797
H                    -1.2739    1.1713    1.5735
H                    -0.6124    0.6253   -1.9949
H                     0.8293   -0.2071   -1.824

