%nproc=32
%mem=180GB
%chk=G4.Frag_989.chk
#P G4

Frag_989

0 1
C                    -1.0757   -0.931     0.3824
N                    -0.5776    0.4463    0.2877
O                    -1.483     1.1522   -0.437
C                     0.7054    0.5028   -0.43
N                     1.7889    0.0375    0.4325
H                    -1.1638   -1.3999   -0.6229
H                    -2.0788   -0.9317    0.8603
H                    -0.4062   -1.5424    1.0225
H                    -1.7836    1.8749    0.1712
H                     0.914     1.5597   -0.7132
H                     0.6737   -0.0924   -1.3725
H                     1.7935   -1.0079    0.4223
H                     2.693     0.332    -0.0031

