%nproc=32
%mem=180GB
%chk=G4.Frag_875.chk
#P G4

Frag_875

0 1
C                     1.4358    0.2241    0.4939
C                     0.4884   -0.3742   -0.5057
O                     0.9245   -1.1199   -1.3696
C                    -0.9925   -0.0703   -0.4772
O                    -1.304     0.8942    0.4973
O                    -1.716    -1.2448   -0.2235
H                     1.1014   -0.0251    1.5227
H                     1.4629    1.327     0.3718
H                     2.4625   -0.1748    0.3483
H                    -1.2943    0.3053   -1.4818
H                    -1.0597    1.7777    0.1152
H                    -1.5089   -1.5192    0.7086

