%nproc=32
%mem=180MB
%chk=G4.Frag_705.chk
#P G4

Frag_705

0 1
C                     0.7439    0.9748   -0.9855
C                     0.5301    0.2586    0.3623
C                     1.5768   -0.843     0.5629
N                    -0.8336   -0.2969    0.5214
N                    -1.1319   -1.1651   -0.5555
N                    -1.7791    0.7535    0.5475
H                     0.7072    0.2577   -1.8328
H                     1.7386    1.4695   -0.9942
H                    -0.0276    1.758    -1.1389
H                     0.7028    1.0073    1.1681
H                     1.4186   -1.3402    1.5435
H                     1.5076   -1.6066   -0.241
H                     2.5986   -0.4069    0.553
H                    -1.8811   -1.8179   -0.2316
H                    -1.5155   -0.6232   -1.3665
H                    -2.7279    0.3262    0.657
H                    -1.6275    1.2941    1.4302

