%nproc=32
%mem=180MB
%chk=G4.Frag_658.chk
#P G4

Frag_658

0 1
C                     1.9956    0.0429   -0.2511
O                     0.8983    0.8776    0.0639
C                    -0.3588    0.2282   -0.1002
C                    -0.6943   -0.5711    1.1745
N                    -1.3724    1.2723   -0.2779
O                    -0.3593   -0.6196   -1.2328
H                     1.9339   -0.9481    0.246
H                     2.9241    0.534     0.1053
H                     2.0873   -0.0812   -1.3516
H                    -0.0135   -1.4381    1.2954
H                    -0.6042    0.0824    2.0684
H                    -1.7335   -0.9614    1.1273
H                    -1.1446    1.8067   -1.148
H                    -2.309     0.8317   -0.4319
H                    -1.2495   -1.0563   -1.2875

