%nproc=32
%mem=180GB
%chk=G4.Frag_870.chk
#P G4

Frag_870

0 1
C                    -1.5912    0.9172   -0.0592
C                    -0.6657   -0.3167    0.1133
N                    -0.7798   -0.8171    1.4958
N                    -1.1199   -1.3799   -0.8025
C                     0.8491    0.034    -0.2056
C                     1.4158    1.1002    0.7633
N                     0.967     0.5676   -1.5738
N                     1.695    -1.1664   -0.0881
H                    -2.6528    0.6182    0.0749
H                    -1.3721    1.701     0.6943
H                    -1.4856    1.358    -1.0727
H                    -0.6712   -0.0309    2.1759
H                    -1.744    -1.1895    1.6579
H                    -2.0655   -1.7203   -0.5115
H                    -1.2466   -0.9959   -1.7667
H                     1.3884    0.7565    1.8171
H                     2.482     1.3018    0.5228
H                     0.871     2.0619    0.6727
H                     0.7789   -0.1884   -2.2702
H                     1.9568    0.8594   -1.7484
H                     1.6118   -1.5704    0.873
H                     1.3787   -1.9004   -0.7622

