%nproc=32
%mem=180GB
%chk=G4.Frag_1018.chk
#P G4

Frag_1018

0 1
N                     1.71117  -0.45626  -0.21196
C                     0.6312    0.52361  -0.12238
C                    -0.76655  -0.12834  -0.08862
O                    -0.93921  -0.94914   1.03691
O                    -1.7436    0.88823  -0.0622
O                    -1.01167  -0.89904  -1.21843
H                     2.60926   0.01244  -0.15724
H                     1.68935  -1.11919   0.55662
H                     0.69057   1.21335   0.73991
H                     0.65955   1.14246  -1.02445
H                    -0.13286  -0.99139   1.52782
H                    -1.90404   1.10345   0.86246
H                    -1.49298  -0.34027  -1.83844

