%nproc=32
%mem=180GB
%chk=G4.Frag_1112.chk
#P G4

Frag_1112

0 1
C                    -0.2667   -0.3394   -1.6487
C                    -0.4805   -0.2594   -0.1184
C                    -1.499     0.8698    0.1715
N                    -1.0363   -1.5463    0.331
C                     0.8653    0.0075    0.6485
N                     1.4718    1.2862    0.2347
O                     0.5799    0.0781    2.0257
O                     1.7651   -1.0629    0.4401
H                     0.4422   -1.1511   -1.9128
H                     0.1047    0.6207   -2.0624
H                    -1.2277   -0.5638   -2.1601
H                    -1.7169    0.9404    1.2583
H                    -1.1107    1.8519   -0.1735
H                    -2.4582    0.6745   -0.3546
H                    -1.2761   -1.4951    1.3481
H                    -1.9335   -1.7389   -0.1725
H                     1.8248    1.2238   -0.7464
H                     2.3143    1.4655    0.8281
H                     1.4459    0.0932    2.5115
H                     2.1918   -0.9547   -0.4481

