%nproc=32
%mem=180MB
%chk=G4.Frag_651.chk
#P G4

Frag_651

0 1
C                    -1.7319    0.2253    0.2466
C                    -0.396    -0.4313    0.0894
O                    -0.2905   -1.6719    0.2846
C                     0.7905    0.358    -0.29
N                     2.0666   -0.2669   -0.4405
O                     0.6837    1.5985   -0.4849
H                    -2.0325    0.6972   -0.7122
H                    -1.6764    1.0028    1.0371
H                    -2.5028   -0.5213    0.5339
H                     2.9001    0.3017   -0.7095
H                     2.1892   -1.2921   -0.2864

