%nproc=32
%mem=180GB
%chk=G4.Frag_548.chk
#P G4

Frag_548

0 1
N                    -1.3848   -0.2367   -1.053
C                    -0.4101    0.5422   -0.3604
O                    -0.4042    1.7954   -0.4887
C                     0.6318   -0.1257    0.4827
O                     1.6332   -0.6694   -0.3323
H                    -1.3887   -1.2778   -0.9726
H                    -2.1035    0.2283   -1.651
H                     0.1603   -0.9441    1.0662
H                     1.0688    0.5974    1.2086
H                     2.1971    0.0904   -0.6339

