%nproc=32
%mem=180GB
%chk=G4.Frag_595.chk
#P G4

Frag_595

0 1
C                     1.65345  -0.65988  -0.06886
C                     0.60609   0.12351  -0.84265
O                     0.67856   0.29059  -2.02124
C                    -0.58889   0.68145  -0.05149
C                    -1.60336  -0.42725   0.22383
O                    -0.19734   1.21499   1.20792
H                     1.52185  -0.56814   1.00927
H                     1.58673  -1.7146   -0.35691
H                     2.64949  -0.31257  -0.35648
H                    -1.04894   1.45024  -0.68669
H                    -1.95963  -0.86164  -0.71384
H                    -1.15689  -1.21792   0.83441
H                    -2.45473  -0.01462   0.77141
H                     0.31351   2.01584   1.05143

