%nproc=32
%mem=180MB
%chk=G4.Frag_691.chk
#P G4

Frag_691

0 1
C                    -1.1683   -0.5322    0.8222
C                    -0.3237    0.0854   -0.2965
C                     0.4412   -0.9944   -1.0681
C                     0.6304    1.1184    0.2634
N                     0.5531    2.3577   -0.1055
O                     1.61      0.7557    1.1861
H                    -1.7165    0.2643    1.3696
H                    -1.9151   -1.2331    0.3918
H                    -0.5333   -1.091     1.5421
H                    -1.024     0.5719   -1.0117
H                     1.1169   -1.5648   -0.3959
H                     1.0465   -0.5291   -1.8754
H                    -0.2731   -1.7046   -1.5367
H                    -0.1576    2.6945   -0.7929
H                     1.7136   -0.1987    1.5076

