%nproc=32
%mem=180MB
%chk=G4.Frag_1160.chk
#P G4

Frag_1160

0 1
C                    -0.8138    1.318    -0.5556
C                    -0.3075    0.2048   -0.0132
C                    -1.2268   -0.9194    0.3774
N                     1.1019    0.0991    0.2638
O                     1.9553    1.1002   -0.066
O                     1.5899   -0.9896    0.9072
H                    -1.8765    1.4162   -0.7398
H                    -0.1796    2.1526   -0.8236
H                    -1.4007   -0.8889    1.4732
H                    -0.7679   -1.8942    0.1105
H                    -2.2056   -0.8519   -0.1448
H                     2.2793    0.8693   -0.974
H                     1.852    -1.616     0.1848

