%nproc=32
%mem=180GB
%chk=G4.Frag_710.chk
#P G4

Frag_710

0 1
C                    -0.51089  -1.27511  -1.17729
C                    -0.37126  -0.26261  -0.21077
C                    -1.57687   0.42998   0.35536
N                     0.86331   0.21305   0.41808
N                     1.03378   1.25988   1.00449
N                     2.05197  -0.34532  -0.31727
H                    -1.50007  -1.60012  -1.5434
H                     0.32834  -1.79457  -1.57758
H                    -1.60644   1.48908   0.12502
H                    -2.48895  -0.01776  -0.06102
H                    -1.59019   0.35725   1.45775
H                     0.68616   2.26375   0.58188
H                     0.54328   0.89475   1.83045
H                     1.91755  -1.28114  -0.1162
H                     2.22029  -0.331    -1.35441

