%nproc=32
%mem=180GB
%chk=G4.Frag_803.chk
#P G4

Frag_803

0 1
C                    -1.6956    0.2536    0.5105
C                    -0.3687   -0.3576    0.0116
C                    -0.4504   -0.5799   -1.504
O                    -0.1822   -1.6098    0.6274
C                     0.8156    0.5507    0.3078
N                     0.6527    1.8358    0.3738
N                     2.1339   -0.0008    0.4073
H                    -1.929     1.1966   -0.0298
H                    -1.6355    0.4743    1.598
H                    -2.532    -0.4593    0.3463
H                     0.4849   -1.0508   -1.8765
H                    -1.2986   -1.2543   -1.7509
H                    -0.5974    0.3849   -2.0366
H                    -0.1087   -1.4584    1.6069
H                     1.4544    2.4848    0.5378
H                     2.2991   -1.0234    0.2777
H                     2.9576    0.6138    0.5927

