%nproc=32
%mem=180GB
%chk=G4.Frag_754.chk
#P G4

Frag_754

0 1
C                     2.02504  -0.42963   0.01813
C                     0.70771   0.28057   0.1307
O                     0.84183   1.61102   0.43656
C                    -0.47776  -0.29962  -0.08236
C                    -1.79946   0.41872   0.002
O                    -0.48162  -1.64556  -0.48967
H                     2.83436   0.26908   0.31435
H                     2.22665  -0.89128  -1.02429
H                     2.03927  -1.21803   0.67983
H                    -0.02849   2.01821   0.48881
H                    -1.88789   1.27126  -0.7242
H                    -2.63329  -0.25732  -0.21498
H                    -1.97601   0.80134   0.9924
H                    -1.39013  -1.92886  -0.08749

