%nproc=32
%mem=180GB
%chk=G4.Frag_979.chk
#P G4

Frag_979

0 1
C                     1.0573   -1.5513    0.1655
N                     0.8745   -0.0923    0.3065
C                     1.8754    0.6066   -0.5244
C                    -0.5163    0.3911    0.0386
C                    -1.5482   -0.3542    0.9257
N                    -0.8629    0.2183   -1.3831
N                    -0.5812    1.8241    0.3672
H                     0.4474   -2.1012    0.9097
H                     0.8155   -1.9011   -0.8599
H                     2.1116   -1.8282    0.3834
H                     2.9018    0.3138   -0.2147
H                     1.8091    1.706    -0.3878
H                     1.746     0.3646   -1.6022
H                    -1.6878   -1.4047    0.5956
H                    -1.2191   -0.3486    1.9868
H                    -2.5424    0.1379    0.8642
H                    -1.7857    0.6741   -1.5713
H                    -0.9943   -0.795    -1.6016
H                    -1.553     2.1846    0.2229
H                    -0.3476    1.9555    1.3789

