%nproc=32
%mem=180MB
%chk=G4.Frag_1036.chk
#P G4

Frag_1036

0 1
C                    -0.3175    1.6169    0.018
C                    -0.034     0.1185    0.2166
C                    -1.2584   -0.682    -0.2736
O                     0.1602   -0.1144    1.5895
N                     1.1817   -0.265    -0.526
N                     1.3206   -1.5611   -1.0441
O                     2.183     0.4825   -0.5059
H                    -0.4308    1.8509   -1.0626
H                    -1.2489    1.9116    0.5479
H                     0.5141    2.2283    0.429
H                    -2.1746   -0.3603    0.2668
H                    -1.4128   -0.5265   -1.3631
H                    -1.1198   -1.768    -0.0858
H                     0.4247   -1.0658    1.6958
H                     2.2125   -1.8654   -1.494

