%nproc=32
%mem=180GB
%chk=G4.Frag_1122.chk
#P G4

Frag_1122

0 1
C                     0.8525   -0.9267   -1.4032
C                     0.6383   -0.0916   -0.1168
C                     1.3146   -0.8425    1.0567
C                     1.3684    1.2617   -0.3002
C                    -0.9033    0.1297    0.1652
N                    -1.0812    0.8539    1.4372
N                    -1.5888   -1.1728    0.2526
N                    -1.5044    0.9181   -0.9262
H                     0.4907   -0.3845   -2.3017
H                     1.9333   -1.1363   -1.5584
H                     0.3263   -1.9026   -1.3412
H                     1.1702   -0.3022    2.0161
H                     2.409    -0.9345    0.8837
H                     0.9113   -1.871     1.1641
H                     1.35      1.8606    0.6342
H                     2.4357    1.098    -0.5652
H                     0.9078    1.8598   -1.1147
H                    -0.8474    1.8639    1.301
H                    -2.0906    0.8284    1.7116
H                    -1.3715   -1.6223    1.1713
H                    -2.6239   -1.0201    0.2465
H                    -2.4651    1.2222   -0.6447
H                    -1.6317    0.3111   -1.7679

