%nproc=32
%mem=180GB
%chk=G4.Frag_824.chk
#P G4

Frag_824

0 1
C                    -1.5847   -0.1806    0.3022
O                    -0.2771   -0.7413    0.2585
C                     0.8779    0.0295    0.0859
N                     0.8046    1.3157   -0.0444
O                     2.1194   -0.5969    0.0543
H                    -1.8067    0.3424   -0.6521
H                    -2.3252   -0.9938    0.4466
H                    -1.6647    0.533     1.1495
H                     1.6647    1.8939   -0.1734
H                     2.1918   -1.6019    0.1549

