%nproc=32
%mem=180GB
%chk=G4.Frag_593.chk
#P G4

Frag_593

0 1
C                    -1.62278  -0.12451  -0.5567
C                    -0.27485  -0.65872  -0.14055
O                    -0.0164   -1.84224  -0.19643
C                     0.78631   0.34612   0.31026
N                     0.63763   1.619     0.31695
N                     1.94069  -0.26874   0.75651
H                    -2.08914   0.43428   0.25411
H                    -2.25703  -0.96154  -0.83858
H                    -1.52453   0.56001  -1.4055
H                    -0.29336   1.88873   0.03115
H                     2.72002   0.27773   0.62562
H                     1.99345  -1.27002   0.26825

