%nproc=32
%mem=180MB
%chk=G4.Frag_622.chk
#P G4

Frag_622

0 1
C                    -0.3695    1.1048    0.9755
C                    -0.2338   -0.2012    0.1811
C                    -1.543    -0.4939   -0.5622
N                     0.8761   -0.102    -0.7789
N                     2.0941   -0.0838   -0.0702
H                     0.5464    1.2905    1.575
H                    -1.2286    1.0417    1.6771
H                    -0.5271    1.9632    0.2875
H                    -0.0495   -1.0383    0.8931
H                    -1.4692   -1.4638   -1.0985
H                    -1.7589    0.3079   -1.3007
H                    -2.388    -0.562     0.156
H                     0.8748   -0.9495   -1.3973
H                     2.3471   -1.0655    0.1954
H                     2.8292    0.2519   -0.7328

