%nproc=32
%mem=180GB
%chk=G4.Frag_1082.chk
#P G4

Frag_1082

0 1
C                     1.7404    0.253    -0.7419
N                     0.8711   -0.4487   -0.0803
O                     1.0262   -1.8153   -0.013
C                    -0.3134    0.1718    0.5246
C                    -1.4946    0.0765   -0.4365
O                    -0.6388   -0.4854    1.7203
H                     2.5924   -0.2278   -1.2061
H                     1.6322    1.326    -0.8471
H                    -0.1267    1.2505    0.7423
H                    -2.3916    0.5467    0.0195
H                    -1.722    -0.9869   -0.6642
H                    -1.2585    0.607    -1.3835
H                     0.0833   -0.2674    2.3659

