%nproc=32
%mem=180GB
%chk=G4.Frag_1007.chk
#P G4

Frag_1007

0 1
C                    -1.0235   -0.9664   -0.8239
C                    -0.3825    0.003     0.1984
C                    -0.8783    1.4338   -0.1106
N                    -0.8173   -0.355     1.5572
C                     1.1812   -0.0606    0.1238
O                     1.6231    0.3384   -1.1577
O                     1.7365    0.7829    1.1072
O                     1.6229   -1.3719    0.3933
H                    -0.6802   -0.7374   -1.8554
H                    -0.7677   -2.0211   -0.5899
H                    -2.1313   -0.8808   -0.8009
H                    -0.5273    1.7722   -1.1088
H                    -0.5214    2.1516    0.6576
H                    -1.9892    1.4713   -0.107
H                    -0.5513   -1.3456    1.7635
H                    -1.8615   -0.3092    1.6147
H                     2.6146    0.2844   -1.1503
H                     1.7766    1.7039    0.7389
H                     1.5765   -1.8936   -0.45

