%nproc=32
%mem=180MB
%chk=G4.Frag_494.chk
#P G4

Frag_494

0 1
C                     1.9318   -0.3095    0.6493
C                     0.8193    0.2298    0.144
O                     0.9007    1.3554   -0.6777
C                    -0.5406   -0.3549    0.457
C                    -1.2695   -0.7363   -0.8329
N                    -1.3479    0.5951    1.2242
H                     2.9009    0.1165    0.424
H                     1.8921   -1.1792    1.293
H                     1.7881    1.785    -0.9135
H                    -0.4334   -1.2846    1.0606
H                    -1.4395    0.1581   -1.4702
H                    -0.6719   -1.4786   -1.4043
H                    -2.2534   -1.1908   -0.5895
H                    -1.4187    1.4985    0.7006
H                    -0.8579    0.7955    2.1267

