%nproc=32
%mem=180MB
%chk=G4.Frag_809.chk
#P G4

Frag_809

0 1
C                     1.8674    0.0871   -0.1312
N                     0.7958   -0.4362    0.7262
C                    -0.5692   -0.1406    0.2294
C                    -0.8277    1.3741    0.2301
N                    -0.7589   -0.6655   -1.1314
O                    -1.5105   -0.7247    1.0998
H                     1.9038    1.1945   -0.0785
H                     1.747    -0.2426   -1.1852
H                     2.8458   -0.2897    0.2353
H                     0.9182   -1.4751    0.7756
H                    -0.5463    1.8116    1.2119
H                    -1.9056    1.577     0.0514
H                    -0.2527    1.8798   -0.5738
H                    -1.7629   -0.5477   -1.4016
H                    -0.5662   -1.6937   -1.133
H                    -1.3782   -1.7083    1.075

