%nproc=32
%mem=180MB
%chk=G4.Frag_742.chk
#P G4

Frag_742

0 1
N                    -1.2092    0.0204   -1.4972
C                    -0.4554    0.1454   -0.2492
O                    -0.5534    1.4538    0.252
C                     0.9851   -0.2158   -0.47
O                     1.6461    0.3424   -1.3868
O                     1.5979   -1.1548    0.3539
H                    -1.2159   -0.9882   -1.7761
H                    -2.2038    0.277    -1.2996
H                    -0.8864   -0.5478    0.5072
H                    -0.276     2.0722   -0.4744
H                     2.5709   -1.4045    0.2229

