%nproc=32
%mem=180GB
%chk=G4.Frag_973.chk
#P G4

Frag_973

0 1
C                     1.0872   -1.3059    0.1643
C                     0.2855   -0.0534   -0.2458
C                     0.7405    1.1423    0.6219
N                     0.5547    0.2271   -1.6638
C                    -1.2334   -0.3366   -0.063
O                    -1.5274   -0.6454    1.278
O                    -2.0129    0.7517   -0.4981
H                     0.9202   -1.5536    1.2346
H                     2.176    -1.1399    0.0155
H                     0.7847   -2.1794   -0.4526
H                     1.835     1.3036    0.5163
H                     0.2308    2.0777    0.3089
H                     0.5195    0.9599    1.6953
H                     0.0686    1.109    -1.9475
H                     1.5787    0.3975   -1.7982
H                    -1.498    -1.2132   -0.6984
H                    -2.4695   -0.9579    1.2945
H                    -2.0403    1.4165    0.2383

