%nproc=32
%mem=180GB
%chk=G4.Frag_456.chk
#P G4

Frag_456

0 1
C                    -1.20039  -1.01321  -0.10422
N                    -0.05161  -0.11927   0.06483
C                    -0.09794   1.23148  -0.5399
C                     1.05162  -0.63954   0.66644
O                     1.09483  -1.76135   1.09329
O                     2.12835   0.18755   0.77246
H                    -2.00801  -0.49182  -0.35484
H                    -1.36611  -1.46822   0.74315
H                    -1.12557  -1.77509  -0.80656
H                     0.61307   1.33904  -1.37556
H                    -1.0746    1.40766  -0.93137
H                     0.07537   2.05277   0.19242
H                     1.96079   1.0501    0.40485

