%nproc=32
%mem=180GB
%chk=G4.Frag_881.chk
#P G4

Frag_881

0 1
N                    -1.64651   0.19456   0.45046
N                    -0.3807    0.49546   0.02464
N                     0.38048  -0.49565   0.06403
N                     1.64635  -0.19471  -0.3616
H                    -1.89495  -0.74545   0.45169
H                    -2.30019   0.95005   0.13188
H                     1.89508   0.74557  -0.3616
H                     2.30045  -0.94982  -0.0413

