%nproc=32
%mem=180MB
%chk=G4.Frag_570.chk
#P G4

Frag_570

0 1
N                     1.66     -0.8206    0.1136
N                     0.3871   -0.8242    0.0795
C                    -0.3936    0.3759    0.1296
O                     0.1615    1.5041    0.211
O                    -1.7807    0.299     0.0881
H                     2.2134    0.0632    0.1805
H                    -2.2476   -0.5974    0.0227

