%nproc=32
%mem=180MB
%chk=G4.Frag_912.chk
#P G4

Frag_912

0 1
C                    -1.2454   -0.6435    0.1645
N                    -0.3402    0.437    -0.2422
O                    -0.7586    1.571     0.3757
C                     1.03      0.1653    0.2101
O                     1.5669   -0.905    -0.5176
H                    -1.2539   -0.7679    1.2704
H                    -2.2776   -0.4099   -0.1735
H                    -0.9444   -1.6005   -0.3128
H                    -0.9666    2.198    -0.3634
H                     1.0506   -0.0626    1.3019
H                     1.6577    1.0684    0.0337
H                     2.4814   -1.0502   -0.1603

