%nproc=32
%mem=180GB
%chk=G4.Frag_773.chk
#P G4

Frag_773

0 1
C                     2.2234   -0.0915   -0.5264
C                     1.0938   -0.3354   -0.1827
C                    -0.2804   -0.6331    0.2357
C                    -1.1544    0.61      0.1256
H                     3.2149    0.1227   -0.8281
H                    -0.2707   -0.9899    1.2872
H                    -0.6913   -1.4362   -0.4118
H                    -2.189     0.3652    0.446
H                    -1.1843    0.97     -0.9254
H                    -0.7621    1.418     0.7799

