%nproc=32
%mem=180GB
%chk=G4.Frag_1004.chk
#P G4

Frag_1004

0 1
C                     1.3842   -0.3705    0.2391
C                     0.2053    0.5527   -0.071
O                     0.3486    1.0975   -1.3564
C                    -1.0827   -0.221    -0.0012
N                    -1.7618   -0.2823    1.1011
O                    -1.5311   -0.9113   -1.1248
H                     1.4402   -1.1933   -0.506
H                     2.3335    0.2051    0.2068
H                     1.2739   -0.8067    1.2551
H                     0.181     1.3758    0.6813
H                     1.0491    1.7987   -1.2951
H                    -1.4519    0.2062    1.9711
H                    -2.3883   -1.451    -1.1001

