%nproc=32
%mem=180GB
%chk=G4.Frag_721.chk
#P G4

Frag_721

0 1
C                    -1.2579    0.8492   -0.236
C                    -0.0847   -0.1019    0.0446
C                     0.1266   -1.0402   -1.1639
N                    -0.3905   -0.8998    1.2399
N                     1.1261    0.6989    0.2859
N                     1.4159    1.1563    1.5795
O                     1.785     1.1502   -0.6757
H                    -1.4297    1.5126    0.6387
H                    -1.0411    1.4846   -1.1216
H                    -2.1897    0.2759   -0.431
H                     0.3017   -0.4564   -2.0931
H                     1.0054   -1.6973   -0.9902
H                    -0.7669   -1.6816   -1.3224
H                    -1.2333   -1.4941    1.0608
H                     0.4078   -1.5491    1.431
H                     2.2253    1.7928    1.7534

