%nproc=32
%mem=180MB
%chk=G4.Frag_495.chk
#P G4

Frag_495

0 1
C                    -1.5496    0.1646    0.6031
C                    -0.7778   -0.5568   -0.2149
C                     0.565    -0.0629   -0.6729
N                     1.5116   -0.0589    0.4382
H                    -2.5206   -0.2132    0.9064
H                    -1.2242    1.133     0.9706
H                    -1.1419   -1.5125   -0.5804
H                     0.4708    0.9579   -1.1066
H                     0.9403   -0.7432   -1.468
H                     1.2687    0.7338    1.0761
H                     2.4575    0.1581    0.0486

