%nproc=32
%mem=180GB
%chk=G4.Frag_858.chk
#P G4

Frag_858

0 1
C                     2.0816    0.0612    0.0315
N                     0.8219   -0.5188    0.5186
O                     0.6152   -0.0572    1.7804
C                    -0.3521   -0.197    -0.3342
C                    -0.6589    1.3225   -0.3574
C                    -1.5788   -0.9579    0.209
O                    -0.0973   -0.6479   -1.6458
H                     2.9244   -0.3449    0.6299
H                     2.0882    1.1671    0.1381
H                     2.2659   -0.2151   -1.0278
H                     0.6681   -0.863     2.3552
H                    -0.7739    1.7269    0.6702
H                    -1.6041    1.5172   -0.9085
H                     0.146     1.8804   -0.8789
H                    -2.4616   -0.8023   -0.4478
H                    -1.3622   -2.0468    0.2504
H                    -1.8436   -0.61      1.2304
H                    -0.8787   -0.4146   -2.2133

