%nproc=32
%mem=180MB
%chk=G4.Frag_904.chk
#P G4

Frag_904

0 1
C                    -1.9422    0.0131   -0.0626
C                    -0.6405    0.0043   -0.0206
C                     0.6405   -0.0043    0.0206
C                     1.9422   -0.0131    0.0626
H                    -2.5135   -0.173     0.8366
H                    -2.4519    0.2063   -0.9967
H                     2.4542    0.1606    0.9992
H                     2.5111   -0.194    -0.8391

