%nproc=32
%mem=180GB
%chk=G4.Frag_481.chk
#P G4

Frag_481

0 1
C                    -1.95024  -0.17348  -0.3481
O                    -0.64394  -0.66031  -0.03574
C                     0.37936   0.17212  -0.29173
C                     1.70254  -0.45903   0.06336
N                     0.1752    1.32013  -0.78614
H                    -2.63794  -0.97035  -0.07156
H                    -2.03583   0.04398  -1.41004
H                    -2.17046   0.74631   0.21625
H                     1.55864  -1.45762   0.7474
H                     2.35563  -0.0505    0.64717
H                     2.20994  -0.32068  -0.97426
H                     1.05709   1.80923  -0.9068

