%nproc=32
%mem=180GB
%chk=G4.Frag_1128.chk
#P G4

Frag_1128

0 1
N                     0.79241   1.05615   0.4086
C                     0.56414  -0.10601  -0.05184
O                     1.45513  -1.05663  -0.49059
N                    -0.70193  -0.57961  -0.11353
N                    -1.83709   0.16336   0.05491
H                     1.78642   1.25959   0.48981
H                     2.34402  -0.70908  -0.44731
H                    -0.8497   -1.49849  -0.97523
H                    -1.90952   0.56159   1.12676
H                    -1.64389   0.90923  -0.36648

