%nproc=32
%mem=180MB
%chk=G4.Frag_1093.chk
#P G4

Frag_1093

0 1
C                    -1.05807  -0.72783  -0.05066
C                    -0.1365    0.43644   0.21426
O                    -0.65374   1.58663   0.7239
C                     1.1622    0.40603  -0.07203
O                     1.7173   -0.72656  -0.67812
H                    -0.8758   -0.97101  -1.23694
H                    -2.08288  -0.49932   0.50234
H                    -0.94386  -1.64468   0.3707
H                    -1.59161   1.45242   1.05231
H                     1.81072   1.25485   0.1103
H                     2.65214  -0.56698  -0.58106

