%nproc=32
%mem=180MB
%chk=G4.Frag_1156.chk
#P G4

Frag_1156

0 1
C                    -0.843     1.1578    0.1851
N                    -0.2394    0.0136   -0.5196
C                    -1.0855   -1.1807   -0.3668
C                     1.1468   -0.2577   -0.0717
O                     1.9891    0.8206   -0.3968
O                     1.2      -0.5221    1.3104
H                    -1.0136    0.9315    1.2607
H                    -1.8185    1.4137   -0.2812
H                    -0.1952    2.0559    0.0992
H                    -2.1026   -0.9819   -0.7681
H                    -1.172    -1.4821    0.7006
H                    -0.6633   -2.0272   -0.9498
H                     1.5311   -1.1618   -0.5982
H                     2.0108    0.8722   -1.388
H                     1.2553    0.3483    1.7842

