%nproc=32
%mem=180MB
%chk=G4.Frag_585.chk
#P G4

Frag_585

0 1
C                    -0.8264    0.9904   -0.1338
C                    -0.097    -0.3438   -0.294
O                    -1.025    -1.3943   -0.3712
C                     0.8216   -0.5698    0.8728
O                     0.3786   -1.0766    1.9378
O                     2.1548   -0.174     0.8104
H                    -1.4827    1.1697   -1.0117
H                    -0.0937    1.8234   -0.0685
H                    -1.4525    0.9836    0.7843
H                     0.5128   -0.3141   -1.2265
H                    -1.4261   -1.3568   -1.2789
H                     2.5355    0.2623   -0.0208

