%nproc=32
%mem=180MB
%chk=G4.Frag_469.chk
#P G4

Frag_469

0 1
C                     1.7947    0.4859   -0.3657
O                     0.6501    0.668     0.4387
C                    -0.2948   -0.3656    0.208
C                    -1.3602    0.12     -0.776
N                    -0.933    -0.7242    1.4725
H                     2.3488   -0.4291   -0.0606
H                     1.5308    0.4386   -1.4453
H                     2.4707    1.3535   -0.2216
H                     0.1624   -1.296    -0.211
H                    -1.8477    1.0424   -0.394
H                    -2.1333   -0.6651   -0.9176
H                    -0.8998    0.3412   -1.7616
H                    -1.2909    0.1467    1.9293
H                    -0.1978   -1.1161    2.1049

