%nproc=32
%mem=180MB
%chk=G4.Frag_910.chk
#P G4

Frag_910

0 1
C                    -0.6629   -1.1518   -0.2419
C                     0.125     0.0999    0.1865
C                    -0.7638    1.3469    0.0725
O                     0.5795   -0.0408    1.5118
N                     1.2669    0.2756   -0.6853
N                     2.2022   -0.5473   -0.699
H                    -0.9662   -1.0732   -1.3082
H                    -0.0375   -2.0614   -0.1172
H                    -1.5767   -1.2705    0.379
H                    -0.1987    2.2476    0.3949
H                    -1.0944    1.4942   -0.9785
H                    -1.6637    1.2478    0.7168
H                    -0.2149   -0.1637    2.0957
H                     3.005    -0.4034   -1.327

