%nproc=32
%mem=180GB
%chk=G4.Frag_648.chk
#P G4

Frag_648

0 1
C                     2.0584   -0.0348    0.7267
C                     1.073    -0.2696   -0.1544
N                     1.4215   -0.9159   -1.389
C                    -0.3952    0.1193    0.0993
C                    -0.8559    1.0941   -1.0042
C                    -1.2679   -1.1521    0.0553
C                    -0.6271    0.8071    1.4673
H                     3.0759   -0.3281    0.5006
H                     1.8995    0.4443    1.6807
H                     2.4076   -1.1938   -1.5947
H                     0.7052   -1.1277   -2.1168
H                    -0.8091    0.6247   -2.009
H                    -0.2125    2.0006   -1.0124
H                    -1.9069    1.4138   -0.8339
H                    -2.3326   -0.9066    0.2606
H                    -0.9249   -1.8831    0.8193
H                    -1.2249   -1.6424   -0.9397
H                    -1.7       1.0667    1.6005
H                    -0.0437    1.7504    1.5404
H                    -0.3405    0.1329    2.3033

