%nproc=32
%mem=180GB
%chk=G4.Frag_929.chk
#P G4

Frag_929

0 1
C                    -1.7202    0.262     0.0843
N                    -0.378     0.3473   -0.4716
N                     0.7327   -0.2299    0.1642
N                     2.0019   -0.1162   -0.4172
O                     0.5981   -0.8438    1.2437
H                    -1.7434    0.7415    1.0852
H                    -2.4294    0.7877   -0.5874
H                    -2.0232   -0.8022    0.1724
H                     2.8361   -0.5412    0.0457
H                     2.1253    0.3948   -1.3194

