%nproc=32
%mem=180GB
%chk=G4.Frag_902.chk
#P G4

Frag_902

0 1
N                     1.5536   -0.2061   -0.3735
C                     0.3721    0.5385    0.0671
O                     0.503     0.905     1.4181
C                    -0.9112   -0.2905   -0.1508
O                    -2.0295    0.445     0.269
O                    -0.8575   -1.4825    0.5887
H                     1.486    -0.3465   -1.408
H                     2.3929    0.3973   -0.2136
H                     0.292     1.4718   -0.5345
H                     0.7174    0.0821    1.9307
H                    -1.0182   -0.5295   -1.238
H                    -2.1945    1.1381   -0.4228
H                    -0.3059   -2.1228    0.0677

