%nproc=32
%mem=180MB
%chk=G4.Frag_1079.chk
#P G4

Frag_1079

0 1
C                     2.0426    0.0783   -0.2503
C                     0.9855   -0.2891    0.4823
C                    -0.4382   -0.1181   -0.0094
N                    -0.6798    1.2941   -0.333
N                    -1.3638   -0.5429    1.0457
O                    -0.6478   -0.9193   -1.1496
H                     3.0461   -0.0572    0.1401
H                     1.9197    0.5203   -1.234
H                     1.1627   -0.7142    1.4667
H                    -1.649     1.3924   -0.7143
H                    -0.6391    1.8563    0.549
H                    -2.3435   -0.4385    0.6939
H                    -1.2242   -1.5648    1.2245
H                    -0.1711   -0.4974   -1.9116

