%nproc=32
%mem=180MB
%chk=G4.Frag_614.chk
#P G4

Frag_614

0 1
C                     1.0081    0.5562    1.2927
C                     0.3752    0.065    -0.0275
C                     0.9522    0.9079   -1.1857
C                     0.7597   -1.4142   -0.2511
C                    -1.175     0.2462    0.0285
N                    -1.7549   -0.4759    1.1634
O                    -1.7778   -0.2016   -1.1631
H                     0.6554   -0.0507    2.1538
H                     0.7434    1.6189    1.4822
H                     2.1161    0.4758    1.2514
H                     0.5742    0.5478   -2.1664
H                     2.0617    0.8427   -1.2059
H                     0.6703    1.9769   -1.0717
H                     0.2916   -1.8095   -1.1778
H                     0.4392   -2.0458    0.6041
H                     1.8619   -1.5193   -0.3506
H                    -1.3928    1.3331    0.1765
H                    -1.8206   -1.4924    0.9264
H                    -2.7377   -0.1415    1.2909
H                    -1.8503    0.5805   -1.7702

