%nproc=32
%mem=180MB
%chk=G4.Frag_960.chk
#P G4

Frag_960

0 1
C                    -1.3455   -0.9503    0.1655
C                    -0.5735    0.2587   -0.2798
N                    -1.2255    1.3018   -0.656
C                     0.945     0.2774   -0.2239
N                     1.4086    0.4137    1.1558
O                     1.4681   -0.9036   -0.7725
H                    -0.6663   -1.7637    0.496
H                    -1.9653   -1.3261   -0.6754
H                    -2.0087   -0.6779    1.0133
H                    -0.7482    2.1673   -0.9482
H                     1.3379    1.1451   -0.8038
H                     1.0133    1.2954    1.5574
H                     1.0417   -0.3839    1.7247
H                     1.3183   -0.854    -1.753

