%nproc=32
%mem=180GB
%chk=G4.Frag_447.chk
#P G4

Frag_447

0 1
C                    -1.6214   -1.0723    0.2043
C                    -0.4201   -0.3412   -0.4165
C                    -0.9123    0.9243   -1.1388
C                     0.6437   -0.019     0.6664
C                     1.8962    0.6404    0.0722
O                     1.0247   -1.2083    1.3113
H                    -2.3763   -1.3068   -0.5764
H                    -2.0991   -0.4446    0.9872
H                    -1.3022   -2.0337    0.6592
H                     0.0326   -1.0182   -1.175
H                    -0.0993    1.3704   -1.7478
H                    -1.2774    1.677    -0.4074
H                    -1.7404    0.6746   -1.8361
H                     0.1943    0.6825    1.4091
H                     2.6826    0.728     0.8517
H                     2.2967    0.0328   -0.7671
H                     1.6699    1.6656   -0.287
H                     1.4077   -0.9515    2.1909

