%nproc=32
%mem=180GB
%chk=G4.Frag_842.chk
#P G4

Frag_842

0 1
C                     1.5378   -0.3675    0.0112
C                     0.1502    0.2867    0.0479
O                    -0.1489    0.6706    1.3696
O                     0.1612    1.4106   -0.8008
C                    -0.9072   -0.7235   -0.4385
O                    -2.1906   -0.1571   -0.4164
H                     2.3119    0.3587    0.3393
H                     1.7849   -0.6981   -1.0206
H                     1.5705   -1.2473    0.6893
H                     0.4657    1.4135    1.6083
H                    -0.6649    1.9307   -0.6187
H                    -0.6782   -1.0262   -1.483
H                    -0.8827   -1.6441    0.19
H                    -2.5098   -0.2069    0.5223

