%nproc=32
%mem=180GB
%chk=G4.Frag_728.chk
#P G4

Frag_728

0 1
O                     0.6877    1.6026   -0.1665
C                     0.6181    0.3506   -0.0438
O                     1.681    -0.3549    0.5112
C                    -0.6255   -0.3733   -0.4479
O                    -1.4826   -0.5058    0.6521
H                     2.5245    0.123     0.8053
H                    -1.1348    0.1644   -1.2799
H                    -0.3544   -1.3854   -0.8148
H                    -1.914     0.3789    0.7843

