%nproc=32
%mem=180MB
%chk=G4.Frag_837.chk
#P G4

Frag_837

0 1
N                     2.465     0.1693    0.5528
C                     1.3833   -0.0952    0.238
C                     0.0132   -0.4305   -0.1611
N                    -0.9158    0.5533    0.382
H                    -0.0534   -0.4519   -1.2708
H                    -0.2368   -1.4378    0.2348
H                    -0.7706    1.4568   -0.1256
H                    -1.8849    0.2361    0.15

