%nproc=32
%mem=180MB
%chk=G4.Frag_1051.chk
#P G4

Frag_1051

0 1
C                    -0.3533   -0.966    -1.1525
C                    -0.4278   -0.0987    0.1281
C                    -1.5899    0.9084   -0.0154
C                    -0.743    -1.0109    1.3338
N                     0.8344    0.6448    0.3935
N                     1.9248   -0.2347    0.6091
N                     1.1347    1.556    -0.6497
H                    -1.3148   -1.5011   -1.3102
H                    -0.169    -0.3439   -2.0527
H                     0.4442   -1.7338   -1.0757
H                    -2.5624    0.3802   -0.1208
H                    -1.4543    1.5487   -0.9131
H                    -1.6425    1.5673    0.8781
H                    -1.7287   -1.5095    1.2075
H                     0.0255   -1.8053    1.4447
H                    -0.7675   -0.416     2.2722
H                     2.299    -0.599    -0.2974
H                     2.6866    0.3138    1.0689
H                     1.5653    1.0641   -1.4664
H                     1.8386    2.2358   -0.2822

