%nproc=32
%mem=180GB
%chk=G4.Frag_998.chk
#P G4

Frag_998

0 1
C                    -1.4918   -0.6232   -0.9625
C                    -0.8095   -0.0416    0.0228
O                    -1.4804    0.311     1.1923
C                     0.6705    0.2276   -0.105
N                     1.3945   -0.5783    0.8736
O                     0.921     1.5857    0.1426
H                    -1.0072   -0.9178   -1.8849
H                    -2.552    -0.8127   -0.853
H                    -0.9935    0.7476    1.966
H                     1.0387   -0.034    -1.1271
H                     1.2835   -1.5861    0.6147
H                     2.4137   -0.362     0.7799
H                     0.6125    2.0839   -0.6594

