%nproc=32
%mem=180GB
%chk=G4.Frag_851.chk
#P G4

Frag_851

0 1
C                     1.9197   -0.02204   0.63536
C                     0.61961   0.15142   0.4366
N                    -0.35239  -0.81613   0.38418
N                    -1.5951   -0.18631  -0.06832
H                     2.60336   0.81562   0.74781
H                     2.31299  -0.99335   0.72669
H                     0.31371   1.17667   0.34797
H                    -1.65333   0.40009  -1.11851
H                    -2.30019  -0.92212   0.10942
H                    -1.86825   0.39615   0.4693

