%nproc=32
%mem=180MB
%chk=G4.Frag_871.chk
#P G4

Frag_871

0 1
C                     1.5042   -0.927     0.4181
N                     0.5634    0.2133    0.4698
N                     1.1655    1.3155   -0.1857
N                    -0.6518   -0.0998   -0.2101
C                    -1.5762    1.0453   -0.0692
N                    -1.2515   -1.2127    0.4314
H                     1.2044   -1.7032    1.1528
H                     2.5282   -0.6048    0.7072
H                     1.5431   -1.369    -0.6023
H                     1.5249    1.0267   -1.1273
H                     1.9658    1.6534    0.3973
H                    -2.5604    0.8116   -0.5292
H                    -1.727     1.3042    1.0026
H                    -1.1906    1.934    -0.6112
H                    -2.2419   -1.3134    0.1064
H                    -0.8001   -2.0742    0.0491

