%nproc=32
%mem=180MB
%chk=G4.Frag_1145.chk
#P G4

Frag_1145

0 1
C                    -1.6673   -0.7241    0.2434
C                    -0.4264    0.1069   -0.0684
N                    -0.5645    1.4333    0.5337
N                     0.7597   -0.5789    0.4688
N                     1.8946   -0.3025   -0.3201
H                    -1.7799   -0.8581    1.3407
H                    -2.5733   -0.2179   -0.153
H                    -1.5831   -1.7237   -0.2339
H                    -0.3657    0.211    -1.1764
H                    -0.4485    1.3519    1.5706
H                     0.2072    2.0446    0.1827
H                     2.7146   -0.7647    0.1322
H                     1.7657   -0.7059   -1.2767
H                     2.067     0.7281   -0.3584

