%nproc=32
%mem=180MB
%chk=G4.Frag_1084.chk
#P G4

Frag_1084

0 1
C                    -1.4783   -0.8267    0.1792
C                    -0.4495    0.2451   -0.1986
C                    -0.3756    1.3419    0.8812
N                     0.8633   -0.3695   -0.4917
N                     1.4905   -0.7811    0.7031
O                     1.6503    0.5788   -1.0646
H                    -2.4934   -0.3778    0.2281
H                    -1.2459   -1.2747    1.1682
H                    -1.4883   -1.6298   -0.5881
H                    -0.8221    0.7241   -1.1326
H                     0.3701    2.1145    0.5991
H                    -0.0981    0.9154    1.8685
H                    -1.3639    1.8392    0.9814
H                     1.0657   -1.6952    0.9788
H                     2.4881   -1.0098    0.4839
H                     1.8872    0.2057   -1.9517

