%nproc=32
%mem=180GB
%chk=G4.Frag_814.chk
#P G4

Frag_814

0 1
N                    -1.35063   0.5287   -0.86001
C                    -0.64217  -0.42318  -0.02969
C                     0.60871  -0.32656   0.40631
O                     1.47864   0.72663   0.24014
O                     1.19911  -1.32422   1.12186
H                    -2.29016   0.338    -0.76132
H                    -0.96915   1.41081  -0.69774
H                    -1.18324  -1.33131   0.17185
H                     1.05881   1.42604  -0.34724
H                     2.08997  -1.02481   1.32085

