%nproc=32
%mem=180GB
%chk=G4.Frag_1075.chk
#P G4

Frag_1075

0 1
C                    -1.2695   -0.4727    0.4549
C                    -0.0954   -0.0633   -0.0201
O                     0.0353    1.2091   -0.5793
N                     1.0334   -0.9415    0.048
N                     2.1839   -0.6139   -0.3871
H                    -1.3738   -1.4591    0.8892
H                    -2.1377    0.1726    0.4149
H                    -0.7472    1.8508   -0.6402
H                     2.3711    0.3181   -0.8206

