%nproc=32
%mem=180GB
%chk=G4.Frag_683.chk
#P G4

Frag_683

0 1
C                     0.9659    1.3515   -0.9884
C                     0.8642    0.5187    0.0563
N                     2.0307    0.2861    0.8613
C                    -0.4454   -0.2091    0.3581
C                    -0.7465   -1.2225   -0.7673
N                    -1.5386    0.7691    0.4839
O                    -0.3129   -0.9023    1.5781
H                     1.9004    1.8528   -1.2063
H                     0.1327    1.5398   -1.6514
H                     2.0308   -0.3954    1.6512
H                     2.9272    0.7852    0.6638
H                     0.0754   -1.9667   -0.8412
H                    -1.6929   -1.7649   -0.5571
H                    -0.8536   -0.7129   -1.7483
H                    -1.7685    1.1762   -0.4512
H                    -2.4067    0.2795    0.8018
H                    -1.1622   -1.3851    1.7567

