%nproc=32
%mem=180MB
%chk=G4.Frag_1067.chk
#P G4

Frag_1067

0 1
C                     0.62172   1.06308  -0.1444
C                    -0.01306  -0.1076    0.01544
N                    -1.34825  -0.36271   0.09149
N                     0.70847  -1.38398   0.0583
O                     1.907    -1.31652  -0.06395
H                     1.69828   1.04892  -0.25826
H                     0.10038   2.01085  -0.16757
H                    -2.03556   0.3658    0.52286
H                    -1.63898  -1.31775   0.60099

