%nproc=32
%mem=180GB
%chk=G4.Frag_1158.chk
#P G4

Frag_1158

0 1
C                    -1.84432  -0.29933   0.32776
C                    -0.45651   0.15835   0.05283
N                    -0.21579   1.47935  -0.34625
N                     0.49534  -0.73664   0.08668
C                     1.89154  -0.36715  -0.19614
O                     0.26395  -1.98561   0.37444
H                    -1.8884   -0.75058   1.32161
H                    -2.56163   0.52272   0.2553
H                    -2.1222   -1.09222  -0.3713
H                    -0.97945   2.12627   0.05446
H                     0.70092   1.82734  -0.13547
H                     2.25745   0.38195   0.51846
H                     1.9978    0.02182  -1.21515
H                     2.4613   -1.28646  -0.08722

