%nproc=32
%mem=180GB
%chk=G4.Frag_840.chk
#P G4

Frag_840

0 1
C                    -1.3011   -0.0618   -0.7809
C                    -0.2666   -0.072     0.3564
N                     0.0931   -1.4532    0.7107
O                    -0.8504    0.5565    1.4729
C                     0.9729    0.6967   -0.0671
N                     1.7259    0.2839   -1.0399
O                     1.3047    1.8796    0.5906
H                    -1.5687    0.9834   -1.0478
H                    -2.2258   -0.5873   -0.4598
H                    -0.908    -0.5701   -1.6869
H                     0.3575   -1.9885   -0.148
H                    -0.7493   -1.9283    1.1103
H                    -0.2344    0.4336    2.2429
H                     1.5271   -0.5875   -1.579
H                     2.1231    2.4152    0.3255

