%nproc=32
%mem=180MB
%chk=G4.Frag_599.chk
#P G4

Frag_599

0 1
C                    -0.7325   -1.3161   -0.2372
C                    -0.3207    0.074     0.2872
C                    -0.8724    1.1588   -0.6518
O                    -0.8848    0.282     1.5604
C                     1.2186    0.1877    0.3815
O                     1.8102    0.0249   -0.8796
H                    -0.3205   -2.1161    0.4146
H                    -1.8396   -1.4108   -0.2453
H                    -0.3577   -1.4777   -1.2708
H                    -1.9822    1.1105   -0.6849
H                    -0.4854    1.0284   -1.6853
H                    -0.5816    2.168    -0.2886
H                    -0.541    -0.4247    2.1681
H                     1.4915    1.1849    0.7954
H                     1.61     -0.5901    1.0757
H                     2.7883    0.1163   -0.7392

