%nproc=32
%mem=180GB
%chk=G4.Frag_986.chk
#P G4

Frag_986

0 1
C                     2.08535   1.31677   0.5448
C                     1.08492   0.68592   0.34819
N                    -0.01754  -0.01081   0.19166
C                     0.0438   -1.42414  -0.26504
C                    -1.3268    0.61383   0.07688
H                     2.96304   1.87142   0.69704
H                    -0.6951   -2.05052   0.3436
H                     1.08222  -1.75492  -0.0879
H                    -0.20101  -1.59081  -1.38107
H                    -1.22004   1.66835   0.48645
H                    -2.14656   0.16768   0.70569
H                    -1.65247   0.50742  -1.01898

