%nproc=32
%mem=180MB
%chk=G4.Frag_457.chk
#P G4

Frag_457

0 1
C                    -1.5309    0.1327   -0.2411
C                    -0.2672   -0.691     0.
C                     0.9879    0.1897    0.1067
O                     2.1229   -0.6264    0.2204
O                     0.9101    1.0001    1.2504
H                    -2.3975   -0.549    -0.3725
H                    -1.4223    0.7486   -1.1591
H                    -1.7358    0.7955    0.6259
H                    -0.3883   -1.2844    0.9324
H                    -0.1446   -1.4016   -0.8464
H                     1.0828    0.8238   -0.8105
H                     2.3114   -0.9866   -0.6857
H                     0.4717    1.8486    0.9793

