%nproc=32
%mem=180MB
%chk=G4.Frag_1000.chk
#P G4

Frag_1000

0 1
C                    -1.2672    0.9431   -0.1462
C                    -0.3512   -0.2293    0.2692
N                    -0.7733   -1.4584   -0.4131
O                    -0.4661   -0.437     1.6578
C                     1.1269    0.0773   -0.0891
O                     1.9491   -0.9961    0.2949
O                     1.2564    0.2798   -1.4715
H                    -2.3142    0.7365    0.1622
H                    -1.2488    1.0914   -1.247
H                    -0.9393    1.8862    0.3412
H                    -0.8045   -1.2988   -1.4468
H                    -1.7467   -1.697    -0.1121
H                    -0.1789    0.3952    2.1182
H                     1.4457    1.0093    0.4399
H                     2.1253   -0.8924    1.2664
H                     2.1869    0.5902   -1.6244

