%nproc=32
%mem=180MB
%chk=G4.Frag_635.chk
#P G4

Frag_635

0 1
C                    -0.8581    1.6607   -0.2224
C                    -0.6849    0.333    -0.1031
C                    -1.8013   -0.576    -0.5588
C                     0.6366   -0.2272    0.4219
C                     1.6751   -0.1999   -0.7069
O                     1.0893    0.5632    1.4979
O                     0.4791   -1.5588    0.8522
H                    -0.0751    2.3579    0.0595
H                    -1.7867    2.0684   -0.6115
H                    -2.6818   -0.4472    0.1054
H                    -2.0934   -0.3208   -1.5999
H                    -1.5032   -1.6438   -0.5498
H                     1.317    -0.7941   -1.5752
H                     2.6344   -0.6366   -0.3559
H                     1.8645    0.8437   -1.0383
H                     1.8908    0.1169    1.8787
H                    -0.1023   -1.5393    1.6575

