%nproc=32
%mem=180MB
%chk=G4.Frag_590.chk
#P G4

Frag_590

0 1
N                     0.4517    1.7934    0.4476
C                     0.5688    0.5361    0.1572
N                     1.625    -0.2251    0.7439
C                    -0.4388   -0.1387   -0.7297
N                    -1.5887   -0.565     0.0598
H                    -0.3223    2.3799    0.0621
H                     1.7154   -1.2475    0.552
H                     2.3181    0.2312    1.378
H                    -0.7733    0.5671   -1.5214
H                     0.024    -1.0164   -1.2333
H                    -2.2952   -0.966    -0.5986
H                    -1.2848   -1.349     0.6825

