%nproc=32
%mem=180MB
%chk=G4.Frag_1106.chk
#P G4

Frag_1106

0 1
N                     1.6329   -0.7578   -0.4068
C                     0.6247    0.2971   -0.4608
C                    -0.492     0.0412    0.575
N                    -1.4421    1.154     0.6027
N                    -1.2133   -1.2015    0.2916
H                     2.3266   -0.5745   -1.1676
H                     2.1523   -0.6678    0.4967
H                     1.1066    1.2796   -0.2567
H                     0.1877    0.3359   -1.483
H                    -0.0303   -0.0427    1.5845
H                    -1.8146    1.3135   -0.362
H                    -0.9349    2.0226    0.8905
H                    -1.5469   -1.1911   -0.7
H                    -0.5567   -2.0088    0.3959

