%nproc=32
%mem=180GB
%chk=G4.Frag_931.chk
#P G4

Frag_931

0 1
N                    -0.02257   1.2077   -0.29037
N                     0.23227  -0.19899  -0.47578
N                    -0.57701  -1.0449    0.31861
O                     1.54674  -0.39773   0.03978
H                    -0.92232   1.38099  -0.75881
H                    -0.12715   1.42011   0.70409
H                    -0.66673  -0.64668   1.27118
H                    -1.49557  -1.03225  -0.08501
H                     2.03245  -0.19823  -0.72359

