%nproc=32
%mem=180GB
%chk=G4.Frag_932.chk
#P G4

Frag_932

0 1
C                     1.79028  -0.80216   0.43806
N                     0.93128   0.18569   0.62061
O                     1.11041   1.18851   1.32315
N                    -0.26817   0.17736   0.07724
C                    -1.13269   1.3201    0.07927
C                    -0.57967  -0.9226   -1.02816
H                     2.69326  -0.70786   0.96579
H                     1.58579  -1.6356   -0.1518
H                    -0.59569   2.41735  -0.34376
H                    -2.02666   1.17101  -0.40303
H                    -1.47712   1.24661   1.00064
H                    -1.5578   -0.73646  -1.43664
H                    -0.63015  -1.74971  -0.57388
H                     0.15694  -1.15223  -1.92788

