%nproc=32
%mem=180GB
%chk=G4.Frag_702.chk
#P G4

Frag_702

0 1
N                    -0.7708   -1.5655   -0.5755
C                    -0.7263   -0.4636    0.1065
N                    -1.8858   -0.0417    0.8265
C                     0.5154    0.4031    0.1022
N                     1.7048   -0.4081    0.3602
N                     0.6574    1.0954   -1.1796
H                     0.0423   -1.9074   -1.135
H                    -1.8884    0.8557    1.3601
H                    -2.7516   -0.6258    0.8239
H                     0.4291    1.1698    0.9056
H                     2.535     0.2282    0.3751
H                     1.6253   -0.8087    1.3236
H                    -0.1962    1.6781   -1.3428
H                     0.71      0.3905   -1.9509

