%nproc=32
%mem=180GB
%chk=G4.Frag_478.chk
#P G4

Frag_478

0 1
C                    -1.506     0.0581   -0.2927
C                    -0.3028   -0.5128   -0.3225
C                     0.9129    0.1011    0.2613
N                     1.9766   -0.6184    0.4249
O                     0.96      1.4453    0.6322
H                    -1.6847    1.0131    0.1788
H                    -2.3519   -0.4553   -0.7314
H                    -0.2187   -1.4941   -0.7744
H                     2.0115   -1.6299    0.1646
H                     0.2032    2.0929    0.459

