%nproc=32
%mem=180MB
%chk=G4.Frag_925.chk
#P G4

Frag_925

0 1
C                     1.2865    1.4687   -0.2482
C                     0.8513    0.2541    0.1094
N                     1.8014   -0.7041    0.5967
C                    -0.6019   -0.1611   -0.1245
N                    -1.502     0.985     0.0771
N                    -0.9679   -1.2417    0.8018
N                    -0.7523   -0.6474   -1.4998
H                     0.6211    2.2033   -0.683
H                     2.3263    1.7426   -0.122
H                     2.799    -0.4394    0.7596
H                     1.5299   -1.6968    0.7698
H                    -1.4455    1.2997    1.0736
H                    -2.4884    0.6819   -0.0957
H                    -1.9582   -1.5277    0.6223
H                    -0.9226   -0.8865    1.7851
H                    -0.0921   -1.4445   -1.6562
H                    -0.4849    0.114    -2.1661

