%nproc=32
%mem=180GB
%chk=G4.Frag_1147.chk
#P G4

Frag_1147

0 1
C                    -1.5872   -0.8614    0.354
C                    -0.645     0.0534    0.1303
O                    -1.0427    1.3657   -0.1329
N                     0.7496   -0.3082    0.1791
C                     1.6478    0.3212   -0.5162
O                     1.1485   -1.3705    0.9603
H                    -2.6337   -0.5855    0.3248
H                    -1.3311   -1.8929    0.5589
H                    -0.3809    2.1277   -0.2075
H                     1.3874    1.1282   -1.1886
H                     2.6873    0.0222   -0.462

