%nproc=32
%mem=180GB
%chk=G4.Frag_639.chk
#P G4

Frag_639

0 1
C                     2.1704    0.0191   -0.2435
C                     0.9662    0.0737   -0.2246
C                    -0.4729    0.1405   -0.2018
C                    -1.1982   -0.9476   -0.4408
O                    -1.1095    1.348     0.0713
H                     3.2274   -0.0289   -0.26
H                    -2.2794   -0.8968   -0.4235
H                    -0.7259   -1.8988   -0.6558
H                    -0.5781    2.1907    0.2566

