%nproc=32
%mem=180MB
%chk=G4.Frag_892.chk
#P G4

Frag_892

0 1
C                     1.8812    0.647    -0.507
N                     0.6264    0.8006   -0.2707
C                    -0.2232   -0.2919    0.154
C                    -1.5785    0.2617    0.5755
O                    -0.4076   -1.1956   -0.9043
H                     2.4754    1.4967   -0.8239
H                     2.3622   -0.3203   -0.3903
H                     0.229    -0.8056    1.0359
H                    -2.0633    0.7858   -0.2759
H                    -1.453     0.9765    1.4167
H                    -2.2376   -0.5675    0.9099
H                     0.3891   -1.7873   -0.9192

