%nproc=32
%mem=180MB
%chk=G4.Frag_996.chk
#P G4

Frag_996

0 1
C                    -0.7843   -0.9419    0.2536
C                    -0.2453    0.4293   -0.1801
O                    -0.9676    1.445     0.4641
N                     1.1747    0.5771    0.1534
O                     1.891    -0.2788   -0.6176
H                    -1.8573   -1.0287   -0.0198
H                    -0.6863   -1.0676    1.3529
H                    -0.2292   -1.7571   -0.2566
H                    -0.3674    0.5334   -1.2846
H                    -1.8507    1.5012    0.0133
H                     1.3285    0.3036    1.152
H                     2.5939    0.2844   -1.0307

