%nproc=32
%mem=180MB
%chk=G4.Frag_1016.chk
#P G4

Frag_1016

0 1
C                     1.7945    0.2424   -0.8001
C                     0.6791   -0.4889   -0.7046
C                    -0.3434   -0.2456    0.383
N                    -0.8556    1.1279    0.2903
O                     0.2838   -0.4276    1.6266
O                    -1.399    -1.172     0.2608
H                     2.5097    0.0414   -1.5911
H                     2.001     1.0416   -0.0947
H                     0.5108   -1.2812   -1.4288
H                    -1.6213    1.2476    0.993
H                    -1.2876    1.2722   -0.6519
H                    -0.4195   -0.3555    2.3239
H                    -1.8525   -1.0023   -0.6065

