%nproc=32
%mem=180GB
%chk=G4.Frag_541.chk
#P G4

Frag_541

0 1
C                    -1.2214   -1.3552    0.093
C                    -0.3252   -0.3698    0.0983
C                    -0.7541    1.0557   -0.1169
O                     1.0238   -0.6908    0.2805
N                     2.0123    0.2697    0.2394
H                    -0.9051   -2.3802    0.2387
H                    -2.2752   -1.1567   -0.0583
H                    -1.85      1.1811    0.0191
H                    -0.2412    1.7164    0.6127
H                    -0.4819    1.3707   -1.1457
H                     2.9045   -0.2082    0.4968
H                     2.1134    0.5672   -0.7577

