%nproc=32
%mem=180GB
%chk=G4.Frag_995.chk
#P G4

Frag_995

0 1
C                     1.7435   -0.41     -0.4309
C                     0.5732    0.2376    0.2495
O                     0.7547    0.825     1.3056
C                    -0.819     0.1763   -0.346
N                    -1.7433   -0.5404    0.5366
O                    -1.3       1.4699   -0.609
H                     2.5074    0.36     -0.6673
H                     2.1909   -1.1691    0.2443
H                     1.4414   -0.9106   -1.3743
H                    -0.7851   -0.3652   -1.3155
H                    -1.7508   -0.0864    1.4792
H                    -1.3896   -1.5167    0.6651
H                    -1.4233    1.9296    0.2626

