%nproc=32
%mem=180GB
%chk=G4.Frag_828.chk
#P G4

Frag_828

0 1
C                    -0.8195    1.5381    0.3183
C                    -0.5073    0.0962   -0.147
C                    -1.2135   -0.9006    0.7969
N                    -1.0341   -0.0925   -1.5072
C                     1.0371   -0.1598   -0.1578
N                     1.6084    0.0074    1.1849
N                     1.3309   -1.5121   -0.6499
H                    -0.2504    2.2755   -0.2874
H                    -1.9026    1.7582    0.2033
H                    -0.5636    1.6821    1.3892
H                    -0.8337   -0.804     1.8364
H                    -1.052    -1.9455    0.4563
H                    -2.3087   -0.7123    0.8122
H                    -0.601     0.6118   -2.149
H                    -2.0662    0.0816   -1.5164
H                     1.5188    0.5766   -0.8444
H                     1.6502    1.0285    1.4046
H                     2.6064   -0.3047    1.1712
H                     2.3683   -1.6447   -0.6647
H                     1.0323   -1.5799   -1.6495

