%nproc=32
%mem=180GB
%chk=G4.Frag_841.chk
#P G4

Frag_841

0 1
C                    -1.1143    1.367     0.6458
C                    -0.6973   -0.1113    0.6232
N                    -1.6984   -0.8949   -0.1095
C                     0.7578   -0.3369    0.0941
C                     0.9421    0.1397   -1.3589
O                     1.0677   -1.7105    0.1442
O                     1.6496    0.3755    0.9213
H                    -2.0904    1.4696    1.1661
H                    -0.367     1.9791    1.1932
H                    -1.2314    1.7668   -0.3828
H                    -0.7175   -0.4558    1.6815
H                    -1.7595   -0.5703   -1.1006
H                    -1.4251   -1.9039   -0.1121
H                     0.7535    1.2289   -1.4516
H                     1.9876   -0.048    -1.6847
H                     0.2774   -0.4134   -2.0532
H                     1.0937   -1.9746    1.1013
H                     2.5716    0.093     0.6827

