%nproc=32
%mem=180MB
%chk=G4.Frag_461.chk
#P G4

Frag_461

0 1
C                    -1.6474   -0.1132    0.1858
C                    -0.2755    0.161    -0.3298
O                    -0.1261    0.8258   -1.3904
O                     0.8318   -0.3618    0.3395
N                     2.114    -0.1373   -0.1141
H                    -2.299     0.7715    0.0249
H                    -2.0757   -0.9864   -0.3487
H                    -1.6067   -0.3352    1.2728
H                     2.7501   -0.6934    0.4998
H                     2.3344    0.8689    0.0653

