%nproc=32
%mem=180GB
%chk=G4.Frag_863.chk
#P G4

Frag_863

0 1
C                    -1.42727   0.14442   0.22139
C                     0.06253   0.48322   0.23837
C                     0.94363  -0.72724   0.02328
N                     2.20572  -0.75344  -0.26743
H                    -1.66483  -0.51118   1.00563
H                    -2.02577   1.0416    0.40148
H                    -1.74352  -0.36378  -0.73774
H                     0.34079   1.02843   1.21059
H                     0.29357   1.15376  -0.51757
H                     0.41901  -1.68751   0.1583
H                     2.59594   0.19171  -0.36649

