%nproc=32
%mem=180MB
%chk=G4.Frag_500.chk
#P G4

Frag_500

0 1
C                    -0.883     1.3026    0.1816
C                     0.0551    0.1229   -0.1478
C                    -0.7121   -1.2066   -0.0424
O                     0.5594    0.2829   -1.4528
C                     1.2251    0.0826    0.8131
O                     1.1285    0.5854    1.9651
O                     2.4039   -0.5745    0.466
H                    -0.3266    2.2628    0.1227
H                    -1.3103    1.1977    1.2024
H                    -1.7253    1.344    -0.5419
H                    -1.0771   -1.3671    0.9954
H                    -1.5881   -1.2076   -0.7261
H                    -0.0523   -2.056    -0.3223
H                    -0.2075    0.2676   -2.0842
H                     2.5105   -1.0367   -0.4288

