%nproc=32
%mem=180GB
%chk=G4.Frag_934.chk
#P G4

Frag_934

0 1
C                     1.343    -1.3545    0.3708
N                     0.2372   -0.8811    0.8321
C                    -0.5905    0.1004    0.1398
C                     0.1883    1.4072   -0.1016
N                    -1.0617   -0.4379   -1.1406
O                    -1.7166    0.384     0.9319
H                     1.7412   -1.041    -0.5889
H                     1.8964   -2.083     0.9526
H                     0.5876    1.8005    0.8577
H                    -0.484     2.1721   -0.5457
H                     1.0378    1.2451   -0.7979
H                    -1.5371   -1.3533   -0.9646
H                    -0.2502   -0.6281   -1.7719
H                    -1.3915    0.6697    1.8263

