%nproc=32
%mem=180GB
%chk=G4.Frag_1114.chk
#P G4

Frag_1114

0 1
C                     1.611    -1.0752   -0.0409
C                     0.787    -0.0234   -0.052
O                     1.2989    1.253    -0.2946
N                    -0.6239   -0.1856    0.1827
C                    -1.506     0.9771    0.1949
O                    -1.1511   -1.4128    0.4231
H                     1.2464   -2.0769    0.1445
H                     2.6708   -0.9448   -0.2185
H                     2.2853    1.4136   -0.4648
H                    -1.182     1.6876    0.9844
H                    -2.5513    0.6651    0.404
H                    -1.4762    1.4821   -0.7936
H                    -1.4088   -1.7599   -0.4693

