%nproc=32
%mem=180GB
%chk=G4.Frag_436.chk
#P G4

Frag_436

0 1
C                     2.0085   -0.2049   -0.36
N                     0.9385    0.635     0.1305
C                    -0.3076    0.2902    0.1609
C                    -0.7796   -1.0582   -0.3254
C                    -1.3158    1.263     0.6973
H                     2.9691    0.3423   -0.2683
H                     1.844    -0.4523   -1.4301
H                     2.074    -1.136     0.242
H                    -1.8804   -1.1541   -0.2132
H                    -0.2987   -1.8647    0.2664
H                    -0.5277   -1.1838   -1.3991
H                    -2.0629    1.4972   -0.0897
H                    -0.8269    2.2085    1.0167
H                    -1.8344    0.8178    1.5721

