%nproc=32
%mem=180MB
%chk=G4.Frag_983.chk
#P G4

Frag_983

0 1
C                     2.0606    0.1069    0.1027
N                     0.7179    0.6569    0.2267
N                    -0.439    -0.0944   -0.0439
C                    -1.7488    0.532     0.1048
N                    -0.3462   -1.3099   -0.4154
H                     2.2372   -0.2214   -0.9429
H                     2.8024    0.8876    0.3683
H                     2.1785   -0.7557    0.7912
H                    -2.3443   -0.0179    0.8639
H                    -1.6396    1.5875    0.4337
H                    -2.2857    0.5155   -0.8673
H                    -1.193    -1.887    -0.6218

