%nproc=32
%mem=180MB
%chk=G4.Frag_646.chk
#P G4

Frag_646

0 1
C                    -1.4318   -0.8339   -0.7144
C                    -0.4871   -0.37      0.3969
N                    -0.9745    0.8792    0.9843
C                     0.9024   -0.1811   -0.1573
N                     1.1833    0.8787   -0.8491
N                     1.8892   -1.2014    0.0232
H                    -2.4443   -1.0231   -0.2987
H                    -1.0588   -1.7787   -1.1649
H                    -1.5106   -0.0602   -1.5083
H                    -0.4634   -1.1549    1.1867
H                    -0.3373    1.141     1.7721
H                    -1.9086    0.6969    1.419
H                     2.1291    1.0276   -1.2663
H                     1.6621   -2.0756    0.5468
H                     2.8504   -1.0915   -0.37

