%nproc=32
%mem=180GB
%chk=G4.Frag_716.chk
#P G4

Frag_716

0 1
C                    -1.457    -0.2574    0.0151
C                     0.0207   -0.3632    0.2289
O                     0.4831   -1.3361    0.8827
C                     0.9356    0.6563   -0.3164
O                     0.4764    1.6299   -0.9703
O                     2.3116    0.5621   -0.12
H                    -1.9831   -1.11      0.495
H                    -1.8328    0.6886    0.4583
H                    -1.6798   -0.2674   -1.0724
H                     2.7252   -0.203     0.3992

