%nproc=32
%mem=180MB
%chk=G4.Frag_738.chk
#P G4

Frag_738

0 1
C                    -1.0415   -0.079    -0.2797
O                     0.275    -0.6107   -0.3671
C                     1.3663   -0.0242    0.2776
O                     1.2277    1.0167    0.9744
H                    -1.379    -0.0707    0.7785
H                    -1.0628    0.9534   -0.6885
H                    -1.7316   -0.7144   -0.8719
H                     2.3458   -0.4711    0.1767

