%nproc=32
%mem=180GB
%chk=G4.Frag_972.chk
#P G4

Frag_972

0 1
C                     1.9069   -0.316    -0.036
C                     0.7646    0.5288   -0.5237
O                     1.0088    1.4795   -1.2522
C                    -0.6763    0.1889   -0.1782
N                    -0.7983   -0.0971    1.2586
N                    -1.0749   -0.9906   -0.9492
O                    -1.5267    1.258    -0.5281
H                     1.548    -1.1664    0.5802
H                     2.4668   -0.7211   -0.9048
H                     2.5908    0.3051    0.5795
H                    -0.4795    0.7367    1.8047
H                    -1.8091   -0.2393    1.4875
H                    -0.5504   -1.8257   -0.5992
H                    -2.0892   -1.179    -0.7747
H                    -1.2815    2.0382    0.0358

