%nproc=32
%mem=180GB
%chk=G4.Frag_797.chk
#P G4

Frag_797

0 1
C                    -0.071     1.3725    0.0921
C                     0.009    -0.1539   -0.1043
N                    -0.8952   -0.5269   -1.1994
N                     1.3776   -0.5446   -0.4583
N                    -0.3815   -0.845     1.135
O                    -0.7828   -2.0267    1.0899
O                    -0.016    -0.3245    2.3559
H                     0.1548    1.896    -0.8617
H                     0.659     1.7125    0.8574
H                    -1.0914    1.6645    0.4208
H                    -1.8852   -0.3942   -0.887
H                    -0.7731   -1.5425   -1.4192
H                     2.0291   -0.2497    0.3056
H                     1.6667   -0.0374   -1.3269

