%nproc=32
%mem=180MB
%chk=G4.Frag_885.chk
#P G4

Frag_885

0 1
C                     1.7881    0.062     0.1455
C                     0.4908    0.8311   -0.117
C                    -0.7915   -0.0374    0.008
N                    -0.8676   -0.6153    1.353
N                    -0.8021   -1.1238   -0.9827
O                    -1.9226    0.7774   -0.1915
H                     2.6438    0.7695    0.1269
H                     1.7634   -0.4282    1.1412
H                     1.9587   -0.7016   -0.6414
H                     0.4292    1.6723    0.6078
H                     0.5446    1.2784   -1.1335
H                    -0.9566    0.1606    2.0495
H                    -1.7454   -1.1804    1.4225
H                    -0.0772   -1.8355   -0.7354
H                    -0.5634   -0.7427   -1.9274
H                    -1.8921    1.1136   -1.1256

