%nproc=32
%mem=180GB
%chk=G4.Frag_1102.chk
#P G4

Frag_1102

0 1
C                    -1.626    -0.7345   -0.0572
N                    -0.799     0.4552    0.1719
C                     0.6483    0.1772    0.0695
N                     1.3936    1.4028    0.3664
O                     0.9769   -0.2391   -1.238
O                     1.0119   -0.8081    1.0096
H                    -2.6911   -0.4741    0.1171
H                    -1.3589   -1.5474    0.6506
H                    -1.5284   -1.0942   -1.1041
H                    -1.0569    1.1616   -0.5571
H                     1.1328    2.1372   -0.3316
H                     1.0999    1.753     1.3077
H                     0.8126   -1.2161   -1.2994
H                     1.9844   -0.9737    0.8945

