%nproc=32
%mem=180MB
%chk=G4.Frag_762.chk
#P G4

Frag_762

0 1
C                    -1.6794   -0.6429    0.0771
C                    -0.4642    0.2904   -0.0562
N                    -0.403     1.1387    1.1394
O                    -0.6354    1.1181   -1.1832
C                     0.8314   -0.5506   -0.2033
N                     1.9921    0.3055   -0.4408
H                    -1.5796   -1.287     0.9772
H                    -1.7736   -1.2968   -0.8164
H                    -2.6102   -0.0438    0.1727
H                    -0.1158    0.5662    1.967
H                     0.318     1.8839    1.0038
H                    -0.6733    0.5367   -1.9879
H                     0.7182   -1.248    -1.0636
H                     0.9983   -1.1713    0.7062
H                     2.7766   -0.3039   -0.7674
H                     2.2999    0.7048    0.4753

