%nproc=32
%mem=180GB
%chk=G4.Frag_928.chk
#P G4

Frag_928

0 1
C                     1.309    -1.2769    0.3076
C                     1.0129   -0.0283   -0.0556
O                     2.0538    0.8386   -0.3841
C                    -0.42      0.4476   -0.1353
N                    -1.0909   -0.1927   -1.2678
N                    -1.1311    0.1569    1.1126
H                     0.5315   -1.9855    0.5638
H                     2.3405   -1.6021    0.3519
H                     1.8777    1.7921   -0.6772
H                    -0.4226    1.5491   -0.3009
H                    -2.0221    0.2646   -1.4015
H                    -1.2754   -1.1961   -1.0355
H                    -2.0987    0.5467    1.0365
H                    -0.6646    0.6859    1.8855

