%nproc=32
%mem=180GB
%chk=G4.Frag_798.chk
#P G4

Frag_798

0 1
C                     1.4344    0.1799    0.3467
C                    -0.0343    0.0888   -0.0919
N                    -0.853    -0.3828    1.0348
N                    -0.14     -0.8353   -1.2292
N                    -0.4836    1.4218   -0.5084
H                     2.0611    0.5586   -0.4892
H                     1.5379    0.8709    1.2107
H                     1.8146   -0.8194    0.6492
H                    -1.8504   -0.4562    0.7278
H                    -0.5484   -1.3467    1.305
H                    -1.1419   -0.91     -1.5205
H                     0.1573   -1.7922   -0.9276
H                    -0.4759    2.0582    0.3224
H                    -1.4776    1.3644   -0.8297

