%nproc=32
%mem=180MB
%chk=G4.Frag_503.chk
#P G4

Frag_503

0 1
C                    -1.1356    1.3016   -0.459
C                    -0.7192    0.1325    0.061
C                    -1.7204   -0.6713    0.8598
C                     0.7333   -0.3391   -0.1305
C                     1.6787    0.5804    0.6564
N                     1.1145   -0.3292   -1.5528
O                     0.9096   -1.6421    0.3719
H                    -2.1587    1.639    -0.3195
H                    -0.4684    1.9474   -1.0186
H                    -2.5247   -1.037     0.1872
H                    -2.1736   -0.0311    1.6467
H                    -1.2655   -1.5427    1.3703
H                     1.6176    1.6279    0.2918
H                     1.418     0.5649    1.7367
H                     2.7281    0.2329    0.5436
H                     0.3788   -0.8198   -2.1126
H                     1.1768    0.6505   -1.9124
H                     0.4108   -2.2649   -0.2201

