%nproc=32
%mem=180MB
%chk=G4.Frag_629.chk
#P G4

Frag_629

0 1
C                    -0.8994    0.8568    0.6597
C                    -0.3745   -0.1409   -0.3953
N                    -0.1988   -1.476     0.2002
O                    -1.3238   -0.2305   -1.4282
O                     0.8343    0.3217   -0.9777
N                     1.7864    0.3801   -0.0079
H                    -1.8879    0.526     1.0441
H                    -1.0141    1.8634    0.2043
H                    -0.2055    0.9336    1.5233
H                     0.407    -1.4198    1.0509
H                     0.2897   -2.0886   -0.493
H                    -2.1375   -0.663    -1.0563
H                     2.1465    1.3608    0.0019
H                     2.5776   -0.2236   -0.3259

