%nproc=32
%mem=180GB
%chk=G4.Frag_889.chk
#P G4

Frag_889

0 1
N                     1.4827   -0.1852   -0.0189
N                     0.1648    0.2267    0.2172
O                    -0.1115    0.8656    1.2536
N                    -0.8394   -0.0794   -0.7118
O                    -2.1202    0.3069   -0.5023
H                     2.2378    0.0383    0.6671
H                     1.7217   -0.7197   -0.8834
H                    -2.5358   -0.4532   -0.0216

