%nproc=32
%mem=180GB
%chk=G4.Frag_720.chk
#P G4

Frag_720

0 1
C                    -0.9086   -0.1497    0.4438
N                    -0.1718    0.6414   -0.5355
O                    -0.6513    1.7175   -0.9472
N                     1.1212    0.2714   -0.9354
O                     1.7092   -0.8537   -0.463
H                    -1.965     0.1901    0.5018
H                    -0.4373   -0.0381    1.4426
H                    -0.8988   -1.2201    0.149
H                     2.2025   -0.5587    0.344

