%nproc=32
%mem=180GB
%chk=G4.Frag_553.chk
#P G4

Frag_553

0 1
C                    -0.9031   -0.8927   -1.0845
C                    -0.4982    0.0822    0.0436
C                    -0.9654    1.505    -0.3384
C                    -1.2268   -0.327     1.3433
C                     1.0493    0.066     0.2823
N                     1.7873    0.4417   -0.9315
N                     1.4914   -1.254     0.7497
H                    -0.3795   -0.6431   -2.0318
H                    -0.6617   -1.942    -0.8136
H                    -1.9973   -0.8372   -1.2727
H                    -0.6296    2.2456    0.4192
H                    -0.5677    1.8067   -1.3302
H                    -2.0745    1.5519   -0.3998
H                    -0.9492    0.3527    2.1778
H                    -0.9672   -1.3663    1.6378
H                    -2.3294   -0.2803    1.2091
H                     1.2837    0.8071    1.083
H                     2.8059    0.2674   -0.7701
H                     1.7055    1.4751   -1.0655
H                     2.4489   -1.1572    1.1595
H                     1.5778   -1.9015   -0.0672

