%nproc=32
%mem=180MB
%chk=G4.Frag_433.chk
#P G4

Frag_433

0 1
C                    -1.3191   -1.0121   -0.0109
C                    -0.4778    0.0213    0.0917
N                    -0.7885    1.0912    0.994
C                     0.7288    0.1178   -0.8265
O                     1.6666    1.0567   -0.3622
O                     1.3479   -1.1328   -1.0089
H                    -1.1426   -1.8107   -0.7204
H                    -2.2034   -1.07      0.6111
H                    -0.2063    1.9567    1.0291
H                    -1.6206    1.0398    1.6238
H                     0.3665    0.4655   -1.8167
H                     2.0073    0.7296    0.5114
H                     1.6411   -1.4528   -0.1157

