%nproc=32
%mem=180MB
%chk=G4.Frag_559.chk
#P G4

Frag_559

0 1
C                    -1.3703    0.0721    0.8268
C                    -0.4149    0.3662   -0.2981
N                    -0.4768    1.4931   -0.9147
C                     0.613    -0.647    -0.7251
N                     1.9554   -0.1292   -0.4836
H                    -1.2456    0.8303    1.6282
H                    -1.189    -0.9325    1.2624
H                    -2.4136    0.1109    0.4491
H                    -1.1682    2.2127   -0.6557
H                     0.4853   -0.8518   -1.8103
H                     0.4789   -1.6083   -0.1814
H                     2.1077   -0.0891    0.5508
H                     2.638    -0.8275   -0.8579

