%nproc=32
%mem=180MB
%chk=G4.Frag_558.chk
#P G4

Frag_558

0 1
C                    -1.3622   -0.2607   -0.9262
C                    -0.6171    0.2753    0.0429
O                    -1.0096    1.4638    0.6583
C                     0.6701   -0.3694    0.4657
N                     1.7632    0.0982   -0.3797
H                    -2.2847    0.2123   -1.2374
H                    -1.0588   -1.1753   -1.4207
H                    -1.865     1.9432    0.4012
H                     0.88     -0.0938    1.522
H                     0.592    -1.4792    0.4143
H                     1.6398   -0.3156   -1.3327
H                     2.6522   -0.2986    0.0021

