%nproc=32
%mem=180MB
%chk=G4.Frag_449.chk
#P G4

Frag_449

0 1
C                     1.0507    1.3388   -0.0212
C                     0.263     0.3615    0.4376
O                     0.149     0.1621    1.8154
C                    -0.4854   -0.5304   -0.4837
C                    -0.8789   -1.7379   -0.0799
O                    -0.8106   -0.1315   -1.7818
H                     1.2063    1.5024   -1.0784
H                     1.5867    1.9783    0.6684
H                     0.6428    0.7401    2.4862
H                    -0.6542   -2.1046    0.9139
H                    -1.4305   -2.3835   -0.7514
H                    -0.6389    0.8046   -2.1252

