%nproc=32
%mem=180GB
%chk=G4.Frag_791.chk
#P G4

Frag_791

0 1
C                    -1.6953   -0.0481    0.5185
O                    -0.7203   -0.4865   -0.3917
N                     0.3617    0.315    -0.2009
C                     1.5172   -0.5496    0.0249
O                     0.5702    0.9774   -1.3659
H                    -2.6021   -0.6762    0.4008
H                    -1.3352   -0.1557    1.566
H                    -1.9793    1.0086    0.3154
H                     2.431     0.0701    0.1483
H                     1.369    -1.1378    0.9556
H                     1.6626   -1.2486   -0.8288
H                     0.4205    1.9311   -1.1421

