%nproc=32
%mem=180GB
%chk=G4.Frag_533.chk
#P G4

Frag_533

0 1
C                    -1.1583   -0.1547   -0.0152
N                     0.0991   -0.5916   -0.6226
N                     1.1771    0.1036   -0.0398
H                    -1.9972   -0.7097   -0.4831
H                    -1.1589   -0.3705    1.0747
H                    -1.3162    0.9314   -0.1876
H                     2.0548   -0.2321   -0.4955
H                     1.2246   -0.1067    0.9842
H                     1.0751    1.1302   -0.215

