%nproc=32
%mem=180GB
%chk=G4.Frag_608.chk
#P G4

Frag_608

0 1
C                    -1.8373   -0.0935   -0.7121
C                    -0.5736    0.5682   -0.1321
C                    -0.8239    0.9424    1.3408
C                     0.7204   -0.2981   -0.3281
C                     1.9711    0.539    -0.0043
N                     0.7125   -1.4757    0.5574
O                     0.8349   -0.6939   -1.6783
H                    -2.0681   -1.0486   -0.1969
H                    -2.7103    0.5829   -0.5902
H                    -1.7227   -0.28     -1.8001
H                    -0.4378    1.5197   -0.6939
H                    -0.9475    0.0334    1.9667
H                     0.0092    1.5525    1.7441
H                    -1.7465    1.5552    1.4289
H                     1.9652    1.4938   -0.5724
H                     2.8873   -0.0221   -0.2886
H                     2.0394    0.7606    1.0809
H                     1.5629   -2.0529    0.3604
H                    -0.1091   -2.0836    0.3415
H                     0.2739   -1.4993   -1.8238

