%nproc=32
%mem=180GB
%chk=G4.Frag_486.chk
#P G4

Frag_486

0 1
C                     1.9729    0.1653    0.1143
O                     0.7335   -0.0564    0.7373
N                    -0.2056    0.0224   -0.2456
C                    -1.1358    1.0977    0.1138
C                    -0.915    -1.2605   -0.2861
H                     2.0077    1.1768   -0.3483
H                     2.7729    0.1102    0.8807
H                     2.1755   -0.6155   -0.6523
H                    -0.5902    2.0647    0.1499
H                    -1.9335    1.1882   -0.6547
H                    -1.5994    0.9135    1.1088
H                    -1.7064   -1.2371   -1.066
H                    -1.3736   -1.4986    0.6997
H                    -0.203    -2.0708   -0.5515

