%nproc=32
%mem=180GB
%chk=G4.Frag_883.chk
#P G4

Frag_883

0 1
C                    -1.5556    0.5132    0.1301
C                    -0.1481    0.2386   -0.4025
O                    -0.1808   -0.7652   -1.3887
N                     0.7471   -0.1334    0.7091
N                     2.0928   -0.1467    0.2837
H                    -2.2265    0.802    -0.7066
H                    -1.526     1.345     0.8658
H                    -1.9679   -0.3909    0.6269
H                     0.2152    1.1787   -0.8734
H                    -0.5255   -1.5939   -0.9642
H                     0.5112   -1.096     1.0466
H                     2.3662    0.8251    0.0092
H                     2.1979   -0.7764   -0.5461

