%nproc=32
%mem=180GB
%chk=G4.Frag_458.chk
#P G4

Frag_458

0 1
C                     1.9182    0.2299   -0.0674
C                     0.6184   -0.2386   -0.7271
C                    -0.665     0.187     0.0427
C                    -0.7284   -0.4879    1.4217
N                    -1.8597   -0.2053   -0.7178
O                    -0.6805    1.5808    0.2412
H                     2.7755   -0.0218   -0.7267
H                     1.9084    1.3292    0.0873
H                     2.0739   -0.2814    0.9048
H                     0.5847    0.1843   -1.755
H                     0.6484   -1.3456   -0.8291
H                     0.0709   -0.1039    2.0894
H                    -0.6223   -1.5899    1.3263
H                    -1.7047   -0.2696    1.9054
H                    -1.843     0.2561   -1.6567
H                    -1.8397   -1.2381   -0.8873
H                    -0.6553    2.0145   -0.6517

