%nproc=32
%mem=180MB
%chk=G4.Frag_873.chk
#P G4

Frag_873

0 1
N                     2.4805   -0.4079    0.3793
C                     1.4202   -0.0162    0.1313
C                     0.1033    0.4699   -0.1765
N                    -1.0383   -0.3547    0.0488
O                    -0.0391    1.6288   -0.6467
H                    -1.9955   -0.0022   -0.1747
H                    -0.9311   -1.3177    0.4385

