%nproc=32
%mem=180MB
%chk=G4.Frag_1015.chk
#P G4

Frag_1015

0 1
C                    -1.5305    0.0254    0.0476
C                    -0.2534    0.3876   -0.069
N                     0.8182   -0.5671   -0.0245
N                     2.1453   -0.1369   -0.1517
O                     0.5877   -1.7851    0.127
H                    -1.8145   -1.0102    0.1816
H                    -2.3096    0.7756    0.0088
H                    -0.0225    1.4376   -0.2015
H                     2.3793    0.873    -0.2798

