%nproc=32
%mem=180MB
%chk=G4.Frag_924.chk
#P G4

Frag_924

0 1
N                    -1.1157   -0.204     0.0104
C                     0.1134    0.5631   -0.1825
C                     1.3108   -0.2542    0.1932
O                     1.733    -0.2506    1.3794
O                     1.9286   -1.0591   -0.7553
H                    -1.934     0.3871   -0.262
H                    -1.1019   -1.061    -0.5896
H                    -1.2143   -0.4771    1.0155
H                     0.1989    0.8705   -1.2478
H                     0.0811    1.4854    0.4388

