%nproc=32
%mem=180GB
%chk=G4.Frag_770.chk
#P G4

Frag_770

0 1
C                     2.1649   -0.5039   -0.2343
C                     0.7653   -0.4008   -0.775
O                     0.5226   -0.8991   -1.8651
C                    -0.3516    0.3008   -0.0111
C                    -1.5192   -0.6851    0.2163
N                     0.1438    0.7883    1.2852
N                    -0.8086    1.4495   -0.8046
H                     2.5502    0.5076    0.0119
H                     2.8418   -0.9638   -0.9857
H                     2.1709   -1.1369    0.6773
H                    -2.333    -0.1956    0.7929
H                    -1.9396   -1.0301   -0.7528
H                    -1.1716   -1.5745    0.7849
H                     0.3733   -0.0256    1.902
H                    -0.616     1.32      1.7699
H                    -1.5858    1.9343   -0.2988
H                    -1.2074    1.115    -1.7128

