%nproc=32
%mem=180GB
%chk=G4.Frag_677.chk
#P G4

Frag_677

0 1
C                    -0.831    -1.201    -0.7737
C                    -0.267     0.1985   -0.4839
C                    -1.3742    1.1194    0.0465
C                     0.9363    0.1494    0.4903
N                     2.0447   -0.5902   -0.1117
O                     0.5712   -0.4758    1.6958
H                    -1.6594   -1.1326   -1.5109
H                    -0.0444   -1.855    -1.2054
H                    -1.2206   -1.6711    0.1544
H                     0.0852    0.6295   -1.4476
H                    -2.1829    1.2168   -0.709
H                    -1.813     0.7145    0.9833
H                    -0.9678    2.1336    0.2474
H                     1.2834    1.1933    0.6904
H                     2.3916   -0.0505   -0.9381
H                     2.8322   -0.6093    0.5765
H                     0.2155    0.2305    2.2958

