%nproc=32
%mem=180GB
%chk=G4.Frag_1159.chk
#P G4

Frag_1159

0 1
C                     1.0976   -0.0151   -0.4946
N                    -0.2496    0.2641   -0.0067
O                    -0.6686    1.5483    0.1024
C                    -1.1513   -0.7957    0.3307
O                    -0.7973   -2.0007    0.2309
H                     1.0436   -0.6165   -1.4265
H                     1.6677   -0.5757    0.2759
H                     1.6313    0.9341   -0.7131
H                    -0.4238    1.8199    1.0241
H                    -2.1497   -0.5629    0.677

