%nproc=32
%mem=180GB
%chk=G4.Frag_882.chk
#P G4

Frag_882

0 1
N                     2.22626  -0.25207  -0.51178
C                     1.20808   0.4974   -0.33446
N                    -0.09151   0.144     0.19902
N                    -1.06165   1.1463   -0.00087
N                    -0.38997  -1.1932    0.23783
H                     1.95951  -1.21994  -0.26841
H                     1.2749    1.57172  -0.53488
H                    -1.97334   0.94753  -0.77582
H                    -1.30738   1.18884   0.81799
H                    -0.63902  -1.40941   1.0696
H                    -1.20588  -1.42126  -0.52832

