%nproc=32
%mem=180MB
%chk=G4.Frag_661.chk
#P G4

Frag_661

0 1
C                     0.9494    1.3248    0.5426
C                     0.6157    0.0581   -0.255
N                     1.7924   -0.8163   -0.2398
N                    -0.5609   -0.6426    0.3201
C                    -1.8038    0.1384    0.1986
O                    -0.7389   -1.8478   -0.3005
H                     1.921     1.7426    0.2023
H                     0.177     2.1057    0.3838
H                     1.02      1.0918    1.6266
H                     0.4113    0.3573   -1.3092
H                     1.6783   -1.5588   -0.9673
H                     1.8566   -1.2899    0.6911
H                    -1.7949    0.9869    0.9133
H                    -2.6769   -0.4972    0.461
H                    -1.9419    0.5213   -0.8365
H                    -0.9045   -1.6744   -1.2669

