%nproc=32
%mem=180GB
%chk=G4.Frag_609.chk
#P G4

Frag_609

0 1
C                     2.24935  -0.07974  -0.26915
C                     0.9399    0.62424   0.04962
O                     0.90716   1.80109   0.32913
C                    -0.38955  -0.16709   0.00011
C                    -1.30207   0.48025  -1.052
C                    -1.02321  -0.10534   1.40397
O                    -0.09043  -1.51722  -0.35527
H                     2.73231   0.21218   0.42516
H                     2.90911   0.26063  -1.27512
H                     2.12347  -1.13399  -0.24191
H                    -2.28318  -0.00855  -1.05629
H                    -0.8658    0.3727   -2.05438
H                    -1.44553   1.54249  -0.83987
H                    -2.00516  -0.59243   1.39242
H                    -0.39074  -0.61791   2.12966
H                    -1.14549   0.93383   1.71451
H                    -0.92014  -2.00505  -0.3804

