%nproc=32
%mem=180MB
%chk=G4.Frag_844.chk
#P G4

Frag_844

0 1
C                    -0.5501    1.0021   -0.4327
N                    -0.3379   -0.4036   -0.0945
O                    -1.3738   -1.2691   -0.216
C                     0.9364   -0.915     0.3317
N                     1.9765   -0.1541    0.4724
H                    -1.6012    1.165    -0.7523
H                    -0.3501    1.6386    0.4548
H                     0.1205    1.2959   -1.2675
H                    -1.8196   -1.2611    0.6697
H                     1.0333   -1.9713    0.546
H                     1.9659    0.8727    0.2883

