%nproc=32
%mem=180GB
%chk=G4.Frag_682.chk
#P G4

Frag_682

0 1
C                    -2.0632    0.1278    0.5465
C                    -0.8279    0.35     -0.282
N                    -0.9089    1.1264   -1.3065
C                     0.4921   -0.3377    0.0666
C                     1.5522    0.7199    0.4339
N                     0.9567   -1.0925   -1.1003
O                     0.3226   -1.2356    1.1421
H                    -2.9378    0.6515    0.104
H                    -2.2934   -0.957     0.596
H                    -1.903     0.5202    1.5722
H                    -0.101     1.3097   -1.9192
H                     1.7986    1.3565   -0.4423
H                     1.1837    1.373     1.2542
H                     2.4851    0.2221    0.7748
H                     1.8369   -1.5987   -0.8468
H                     0.2481   -1.8289   -1.3264
H                     0.1592   -0.7069    1.967

