%nproc=32
%mem=180GB
%chk=G4.Frag_990.chk
#P G4

Frag_990

0 1
C                    -0.86801  -0.55789  -0.04871
N                     0.25321   0.37584   0.07512
N                     1.59079   0.00054  -0.08122
N                     0.04097   1.68482   0.23518
O                    -1.14425   1.97323   0.28542
H                    -1.76321  -0.27247  -1.02904
H                    -1.22673  -0.53745   0.7214
H                    -0.46311  -1.55972   0.08447
H                     1.80875  -0.46329  -1.01188
H                     1.77149  -0.64351   0.62425

