%nproc=32
%mem=180GB
%chk=G4.Frag_984.chk
#P G4

Frag_984

0 1
C                    -0.8669    1.2057    0.5695
C                    -0.3147    0.0812    0.1003
C                    -1.1893   -1.1184   -0.1443
N                     1.0747    0.0464   -0.2826
N                     1.4443   -0.711    -1.2363
N                     2.0384    0.8115    0.3955
H                    -1.9204    1.2457    0.8181
H                    -0.2904    2.1133    0.6844
H                    -2.0026   -1.1804    0.6107
H                    -0.5899   -2.0502   -0.0741
H                    -1.637    -1.0507   -1.1579
H                     2.4459   -0.765    -1.529
H                     1.8078    1.3719    1.2455

