%nproc=32
%mem=180GB
%chk=G4.Frag_1049.chk
#P G4

Frag_1049

0 1
N                     0.52962  -0.42711   1.44303
C                     0.15598   0.01312   0.24033
N                     0.85978   1.1063   -0.20539
C                    -0.8133   -0.55961  -0.49379
O                    -1.09335  -0.01483  -1.76321
H                     1.25745   0.02597   2.38742
H                     0.07454  -1.21297   2.10783
H                     0.63014   1.46547  -1.24173
H                     1.58314   1.54561   0.05681
H                    -1.38396  -1.41451  -0.12897
H                    -1.79993  -0.52735  -2.18234

