%nproc=32
%mem=180GB
%chk=G4.Frag_697.chk
#P G4

Frag_697

0 1
C                    -1.4233    0.3298    0.4406
N                    -0.129     0.4013    0.4268
C                     0.703    -0.3666   -0.452
O                     0.2008   -1.1738   -1.2798
O                     2.0841   -0.2218   -0.3937
H                    -1.9611   -0.3311   -0.2282
H                    -1.9844    0.9415    1.1336
H                     2.5098    0.4207    0.2634

