%nproc=32
%mem=180GB
%chk=G4.Frag_480.chk
#P G4

Frag_480

0 1
C                    -1.70811  -0.32581  -0.11625
N                    -0.51291  -1.09414  -0.40352
C                     0.60236  -0.56103  -0.20918
C                     0.85642   0.83967   0.31031
O                     1.70057  -1.31224  -0.49384
H                    -1.77505  -0.01964   0.93901
H                    -1.78314   0.58804  -0.72511
H                    -2.58702  -0.93755  -0.33514
H                     0.43841   1.58016  -0.37977
H                     1.91874   1.06243   0.4435
H                     0.35663   0.98178   1.27375
H                     2.49299  -0.80166  -0.30687

