%nproc=32
%mem=180GB
%chk=G4.Frag_498.chk
#P G4

Frag_498

0 1
C                     2.0434   -0.8424    0.0988
N                     0.7905   -0.8942    0.387
C                    -0.2021   -0.0846   -0.2907
C                    -0.1025    1.3764    0.1634
C                    -1.5929   -0.6429    0.0104
H                     2.4149   -0.1827   -0.6807
H                     2.7444   -1.4695    0.6379
H                    -0.0407   -0.1361   -1.3914
H                    -0.8784    1.9895   -0.3428
H                    -0.2418    1.4526    1.2633
H                     0.8922    1.7935   -0.1005
H                    -2.3685   -0.0525   -0.5229
H                    -1.6591   -1.6971   -0.3339
H                    -1.7994   -0.6101    1.1019

