%nproc=32
%mem=180MB
%chk=G4.Frag_690.chk
#P G4

Frag_690

0 1
C                     1.8016   -0.1289   -0.001
C                     0.3637    0.3556    0.1077
N                    -0.5421   -0.6791   -0.3972
N                    -1.876    -0.2361   -0.2992
H                     2.4902    0.6539    0.3813
H                     1.9395   -1.0528    0.6002
H                     2.0535   -0.3418   -1.0617
H                     0.1377    0.575     1.1743
H                     0.2519    1.287    -0.4897
H                    -2.4907   -0.9963   -0.6666
H                    -2.1192   -0.0577    0.7028
H                    -2.0103    0.6212   -0.8839

