%nproc=32
%mem=180GB
%chk=G4.Frag_1136.chk
#P G4

Frag_1136

0 1
N                     1.88767  -0.25208  -0.40688
N                     1.03855   0.45026  -0.91809
N                    -1.86585   0.09866   0.55463
H                     2.91495  -0.11654  -0.5369
H                     1.68203  -1.08404   0.18753
H                    -2.15271   1.06892   0.69654
H                    -0.97668   0.11448   0.04726
H                    -2.52796  -0.27956  -0.13288

