%nproc=32
%mem=180GB
%chk=G4.Frag_1109.chk
#P G4

Frag_1109

0 1
C                     1.8403    0.2081    0.1403
C                     0.7482   -0.3353   -0.3934
N                    -0.5698    0.0137    0.0538
N                    -1.6829   -0.6043   -0.5405
O                    -0.751     0.9344    1.0351
H                     1.7773    0.9382    0.9364
H                     2.8183   -0.0803   -0.2224
H                     0.8617   -1.0634   -1.1873
H                    -1.6601   -1.6128   -0.2662
H                    -2.5483   -0.1992   -0.1158
H                    -0.8335    1.8008    0.5601

