%nproc=32
%mem=180GB
%chk=G4.Frag_493.chk
#P G4

Frag_493

0 1
C                     1.7463    0.2478    0.9931
C                     0.8077    0.025     0.0683
N                     1.0983   -0.8429   -1.0348
C                    -0.5542    0.6812    0.1823
C                    -1.6654   -0.3636    0.3391
O                    -0.7954    1.5164   -0.9225
H                     1.56      0.8965    1.8398
H                     2.72     -0.2193    0.9161
H                     0.3817   -1.0425   -1.7666
H                     2.0329   -1.3004   -1.1294
H                    -0.5894    1.324     1.0897
H                    -1.4801   -0.9838    1.2421
H                    -2.6448    0.1468    0.4577
H                    -1.7194   -1.0282   -0.5487
H                    -0.8981    0.9431   -1.7262

