%nproc=32
%mem=180GB
%chk=G4.Frag_937.chk
#P G4

Frag_937

0 1
C                     1.5503    0.4177    0.0244
C                     0.2267   -0.1908    0.5116
N                     0.4078   -1.6195    0.8133
O                    -0.1637    0.4822    1.6839
C                    -0.8316    0.0004   -0.5602
N                    -1.1159   -0.9657   -1.3772
N                    -1.4616    1.2762   -0.7234
H                     1.4301    1.506    -0.166
H                     1.8855   -0.0721   -0.9153
H                     2.3399    0.2849    0.7947
H                     0.8505   -2.1011   -0.0039
H                     1.0727   -1.714     1.6158
H                    -0.9869    0.0389    2.0203
H                    -1.8188   -0.8514   -2.1412
H                    -1.2057    2.0814   -0.1101
H                    -2.1796    1.427    -1.4667

