%nproc=32
%mem=180GB
%chk=G4.Frag_470.chk
#P G4

Frag_470

0 1
C                     1.7021    0.5405   -0.7764
C                     0.682    -0.4435   -0.1844
O                     1.3678   -1.3003    0.6961
N                    -0.3931    0.2711    0.551
C                    -1.2038    1.1082   -0.3552
C                    -1.2819   -0.6924    1.2279
H                     1.2751    1.0781   -1.6481
H                     2.022     1.2744   -0.0063
H                     2.5974   -0.0098   -1.1365
H                     0.2386   -1.0418   -1.0181
H                     1.8096   -1.9954    0.1412
H                    -0.6104    1.9715   -0.7193
H                    -2.0721    1.5453    0.1845
H                    -1.5806    0.5215   -1.2224
H                    -1.7318   -1.4052    0.5009
H                    -0.7237   -1.2619    2.0006
H                    -2.0973   -0.1602    1.7643

