%nproc=32
%mem=180GB
%chk=G4.Frag_1081.chk
#P G4

Frag_1081

0 1
N                    -0.984    -0.8236   -0.6155
C                    -0.4654    0.3478    0.1057
O                    -0.8249    0.2825    1.4657
O                    -1.0384    1.5128   -0.4335
C                     1.0706    0.4371   -0.0347
O                     1.7043   -0.6688    0.5534
H                    -2.0256   -0.8332   -0.5186
H                    -0.6352   -1.7003   -0.1645
H                    -0.4901   -0.5761    1.8342
H                    -0.8706    1.5046   -1.4127
H                     1.4266    1.3561    0.4782
H                     1.3549    0.5276   -1.1092
H                     1.7777   -1.3668   -0.1484

