%nproc=32
%mem=180GB
%chk=G4.Frag_954.chk
#P G4

Frag_954

0 1
C                     2.30459  -0.33867  -0.40527
C                     1.149    -0.17722  -0.12633
C                    -0.24904   0.02288   0.26698
N                    -1.08161  -1.01682  -0.33996
N                    -0.72067   1.32995  -0.21692
H                     3.323    -0.48495  -0.6671
H                    -0.27548  -0.03964   1.37526
H                    -0.81373  -1.93517  -0.20768
H                    -2.06176  -0.88191   0.18426
H                    -1.58214   1.60702   0.07492
H                     0.00783   2.04063   0.25574

