%nproc=32
%mem=180GB
%chk=G4.Frag_946.chk
#P G4

Frag_946

0 1
N                     1.6937   -0.3107    0.1244
C                     0.5018    0.5261    0.0202
C                    -0.6521   -0.2583   -0.6272
O                    -1.7592    0.5759   -0.86
O                    -1.0256   -1.3659    0.1545
H                     1.5312   -1.0214    0.8745
H                     2.4786    0.2945    0.4576
H                     0.2044    0.8923    1.0286
H                     0.7331    1.41     -0.614
H                    -0.3029   -0.6368   -1.6115
H                    -2.0679    0.916     0.0202
H                    -1.3351   -1.0217    1.0327

