%nproc=32
%mem=180GB
%chk=G4.Frag_613.chk
#P G4

Frag_613

0 1
C                     2.3189    0.6427   -0.9023
C                     1.2788    0.1963   -0.4861
C                     0.0068   -0.35      0.0224
C                    -1.1655    0.3606   -0.678
C                    -0.0622   -0.1115    1.5383
N                    -0.0328   -1.792    -0.2458
H                     3.2315    1.0346   -1.2675
H                    -2.136    -0.0359   -0.3096
H                    -1.1186    0.201    -1.7772
H                    -1.1362    1.4544   -0.4806
H                    -0.0001    0.9743    1.7702
H                    -1.0172   -0.5031    1.9502
H                     0.7762   -0.6314    2.0511
H                    -0.0015   -1.9561   -1.2794
H                    -0.9421   -2.1831    0.0943

