%nproc=32
%mem=180GB
%chk=G4.Frag_477.chk
#P G4

Frag_477

0 1
C                    -1.46561  -0.41969  -0.56877
C                    -0.03628  -0.77455  -0.24968
C                     0.8344    0.09808   0.28949
N                     0.56263   1.40054   0.54366
O                     2.13758  -0.18728   0.57788
H                    -1.99172  -1.27757  -0.99064
H                    -2.04176  -0.10815   0.32061
H                    -1.54873   0.39238  -1.30076
H                     0.31222  -1.77897  -0.48212
H                     1.28458   1.97163   1.36843
H                    -0.34772   1.78812   0.79439
H                     2.30051  -1.10445   0.3276

