%nproc=32
%mem=180GB
%chk=G4.Frag_526.chk
#P G4

Frag_526

0 1
C                     2.03226  -0.07386   0.30293
C                     0.59428  -0.02155   0.07932
C                    -0.59427   0.02169  -0.10539
C                    -2.03225   0.07382  -0.32901
H                     2.5708    0.37569  -0.48051
H                     2.29245   0.29233   1.51299
H                     2.41858  -0.93264   0.05565
H                    -2.58403  -0.52293   0.39863
H                    -2.38013   1.29022  -0.54108
H                    -2.31768  -0.50276  -1.02383

