%nproc=32
%mem=180GB
%chk=G4.Frag_1048.chk
#P G4

Frag_1048

0 1
C                    -1.0595   -1.0194    0.0649
C                    -0.1501    0.2305    0.1075
N                    -0.8702    1.375    -0.4671
N                     0.2131    0.548     1.4986
N                     1.0659   -0.0112   -0.6964
O                     1.8538    1.0922   -0.6308
O                     1.7756   -1.032    -0.1511
H                    -0.5581   -1.892     0.5348
H                    -2.0069   -0.8305    0.6134
H                    -1.3053   -1.2803   -0.9867
H                    -1.7659    1.5253    0.0526
H                    -1.1216    1.1594   -1.4599
H                    -0.6559    0.7614    2.041
H                     0.6472   -0.2885    1.9524
H                     2.0278    1.3324   -1.5763
H                     1.9101   -1.6703   -0.8971

