%nproc=32
%mem=180GB
%chk=G4.Frag_544.chk
#P G4

Frag_544

0 1
C                     1.32621   0.06108   1.39533
C                     0.99065   0.48689  -0.03098
N                     1.85398   1.19827  -0.68927
C                    -0.3606    0.04379  -0.5925
C                    -1.53193   0.68513   0.2116
C                    -0.49756  -1.4788   -0.69048
H                     1.36263  -1.06131   1.56367
H                     0.55027   0.42007   2.07481
H                     2.31568   0.49128   1.6429
H                     1.51044   1.41664  -1.6372
H                    -0.40009   0.4016   -1.61731
H                    -2.47985   0.44248  -0.28341
H                    -1.44168   1.76859   0.29138
H                    -1.58325   0.32638   1.23039
H                     0.33627  -1.94454  -1.26227
H                    -0.52782  -1.89187   0.30434
H                    -1.42425  -1.76276  -1.19212

