%nproc=32
%mem=180MB
%chk=G4.Frag_821.chk
#P G4

Frag_821

0 1
C                    -1.5294   -0.8412    0.0254
C                    -0.5177    0.3137   -0.1271
O                    -0.7274    1.2564    0.8995
O                    -0.7146    0.938    -1.3697
C                     0.9156   -0.1828   -0.0835
N                     1.1987   -1.4003   -0.43
N                     1.9752    0.7274    0.2321
H                    -2.5638   -0.4382    0.0682
H                    -1.3357   -1.4092    0.9608
H                    -1.4626   -1.536    -0.8393
H                    -0.5645    0.8001    1.7672
H                    -1.6       1.3874   -1.3401
H                     2.1814   -1.7536   -0.4465
H                     2.9688    0.4064    0.2477
H                     1.7759    1.7319    0.4353

