%nproc=32
%mem=180MB
%chk=G4.Frag_1119.chk
#P G4

Frag_1119

0 1
O                    -0.5764    1.2342   -0.1301
C                    -0.7106   -0.1298    0.1647
O                     0.1401   -0.8909   -0.656
O                     1.352    -0.7798   -0.1432
H                     0.2266    1.5521    0.3586
H                    -0.5283   -0.33      1.2482
H                    -1.7574   -0.4298   -0.0472
H                     1.8539   -0.2261   -0.795

