%nproc=32
%mem=180MB
%chk=G4.Frag_1116.chk
#P G4

Frag_1116

0 1
C                    -1.2707   -0.8606   -0.1677
C                    -0.2037    0.2272    0.1059
C                    -0.373     0.7438    1.5505
C                    -0.43      1.4161   -0.853
N                     1.178    -0.2908   -0.062
N                     1.385    -0.7419   -1.3849
O                     1.3898   -1.3357    0.7844
H                    -1.236    -1.2004   -1.2242
H                    -2.29     -0.4598    0.0221
H                    -1.1201   -1.7408    0.4926
H                    -0.2808   -0.0866    2.2828
H                     0.4062    1.5013    1.7835
H                    -1.3717    1.2118    1.6904
H                    -0.3848    1.0884   -1.9135
H                    -1.4275    1.8765   -0.6832
H                     0.3486    2.1932   -0.6948
H                     1.0729   -1.7378   -1.4782
H                     2.4158   -0.7264   -1.5567
H                     2.1919   -1.0774    1.3059

