%nproc=32
%mem=180GB
%chk=G4.Frag_993.chk
#P G4

Frag_993

0 1
C                    -1.40615   1.3306   -0.29892
C                    -0.77628   0.14889  -0.09183
N                    -1.40491  -1.10509  -0.10343
C                     0.74676   0.01616   0.09798
N                     1.37929  -0.82755  -0.92154
N                     0.97323  -0.64159   1.36524
O                     1.38877   1.27611   0.09372
H                    -2.47918   1.38208  -0.45423
H                    -0.86686   2.26685  -0.30171
H                    -2.41238  -1.06165  -0.03502
H                    -1.01051  -1.72732   0.59322
H                     0.82564  -1.67312  -1.03152
H                     1.33637  -0.34779  -1.81689
H                     1.97659  -0.71349   1.50777
H                     0.58889  -0.06617   2.10942
H                     1.14073   1.74298  -0.71225

