%nproc=32
%mem=180MB
%chk=G4.Frag_743.chk
#P G4

Frag_743

0 1
C                     1.6714    0.8049    0.0693
N                     0.714     0.0562   -0.7718
N                     1.2767   -1.2063   -1.0789
C                    -0.6342   -0.1286   -0.1517
C                    -0.5518   -0.836     1.2259
C                    -1.3401    1.2375    0.0058
O                    -1.4167   -0.9146   -1.0257
H                     2.5859    1.0283   -0.5203
H                     1.977     0.2186    0.9622
H                     1.2638    1.7861    0.3801
H                     0.7379   -1.6131   -1.877
H                     2.2326   -1.061    -1.4806
H                    -1.5712   -1.0466    1.6147
H                    -0.0119   -1.8021    1.1394
H                    -0.0404   -0.2016    1.9794
H                    -2.4151    1.0963    0.249
H                    -0.9022    1.8381    0.8295
H                    -1.2711    1.8143   -0.941
H                    -2.3046   -1.0705   -0.6082

