%nproc=32
%mem=180MB
%chk=G4.Frag_1148.chk
#P G4

Frag_1148

0 1
N                     2.6035   -0.6292   -0.626
C                     1.5496   -0.4496   -0.183
C                     0.2121   -0.2217    0.3791
N                    -0.0672    1.2148    0.4284
N                    -0.7896   -0.9291   -0.4209
H                     0.2042   -0.6288    1.4136
H                    -0.1464    1.5891   -0.5457
H                    -0.9942    1.3566    0.8915
H                    -1.7235   -0.8077    0.0341
H                    -0.8484   -0.4945   -1.3712

