%nproc=32
%mem=180GB
%chk=G4.Frag_1138.chk
#P G4

Frag_1138

0 1
C                     2.18156   0.05704  -0.01012
N                     1.13676   0.73991  -0.08825
C                    -0.1329   -0.02058  -0.18303
C                    -1.25481   0.99722  -0.48062
N                    -0.30955  -0.70867   1.10802
N                    -0.01891  -1.0654   -1.21439
H                     3.14544   0.57017   0.09599
H                     2.17712  -1.02381  -0.05459
H                    -2.23021   0.49792  -0.53002
H                    -1.07572   1.49555  -1.43471
H                    -1.29073   1.77233   0.30219
H                    -1.31118  -1.32588   1.24778
H                    -0.12141  -0.00406   1.83178
H                    -0.82855  -1.37041  -1.18511
H                    -0.06191  -0.61124  -2.1211

