%nproc=32
%mem=180GB
%chk=G4.Frag_895.chk
#P G4

Frag_895

0 1
N                    -1.7011    0.6518    0.0032
C                    -0.328     0.9139    0.3097
C                     0.66      0.0273    0.1212
N                     0.4447   -1.2593   -0.4736
O                     1.9481    0.3819    0.5156
H                    -2.061    -0.29     -0.2594
H                    -2.4002    1.4169    0.1272
H                    -0.0789    1.8802    0.7317
H                    -0.4478   -1.533    -0.9361
H                     1.2362   -1.9375   -0.5297
H                     2.7279   -0.2522    0.3903

