%nproc=32
%mem=180MB
%chk=G4.Frag_969.chk
#P G4

Frag_969

0 1
C                     1.256     1.6549    0.294
C                     0.9568    0.3518    0.1968
N                     2.0336   -0.5892    0.0807
C                    -0.482    -0.1621    0.1254
C                    -0.8064   -0.5169   -1.3387
N                    -0.5816   -1.3769    0.9455
N                    -1.4417    0.8393    0.6263
H                     0.5007    2.4245    0.3539
H                     2.2886    1.98      0.3146
H                     3.0309   -0.2798    0.1172
H                     1.844    -1.6065   -0.0571
H                    -0.6727    0.3704   -1.9945
H                    -0.139    -1.3278   -1.7017
H                    -1.8579   -0.8643   -1.429
H                    -1.5469   -1.7744    0.8721
H                    -0.4352   -1.1197    1.9495
H                    -1.5632    1.6004   -0.0817
H                    -2.3841    0.3962    0.7267

