%nproc=32
%mem=180MB
%chk=G4.Frag_905.chk
#P G4

Frag_905

0 1
C                    -1.2442    0.153     0.2445
C                    -0.0272    0.1744   -0.6718
N                     1.0394   -0.6531   -0.1156
N                     1.9121   -0.1354    0.8508
O                     1.1013   -1.8648   -0.4084
H                    -2.0497    0.7819   -0.1897
H                    -1.6205   -0.8861    0.3553
H                    -0.9767    0.5539    1.2452
H                     0.3302    1.2201   -0.7907
H                    -0.3145   -0.2052   -1.6767
H                     1.8497    0.8612    1.1571

