%nproc=32
%mem=180GB
%chk=G4.Frag_974.chk
#P G4

Frag_974

0 1
N                    -0.97175  -0.52213   0.27978
C                    -0.29437   0.65403   0.27734
N                     0.87238   0.83681  -0.23819
O                     1.37309  -0.41359  -0.71137
H                    -1.88372  -0.57318   1.15931
H                    -0.5422   -1.35535   0.26572
H                    -0.78695   1.53556   0.66508
H                     2.23351  -0.16226  -1.02778

