%nproc=32
%mem=180GB
%chk=G4.Frag_877.chk
#P G4

Frag_877

0 1
N                     2.592    -0.2588    0.0402
C                     1.5349    0.2071    0.108
N                     0.2538    0.7718    0.1902
N                    -0.888    -0.0384    0.2656
H                    -0.828    -0.6311    1.1248
H                    -0.9394   -0.634    -0.5921
H                    -1.7254    0.5834    0.3189

