%nproc=32
%mem=180MB
%chk=G4.Frag_434.chk
#P G4

Frag_434

0 1
C                     2.1334   -0.0321   -0.1435
C                     0.9473    0.401     0.2927
C                    -0.3364   -0.2114   -0.204
C                    -1.5458    0.5425    0.3534
O                    -0.391    -1.5561    0.1944
H                     3.047     0.4259    0.2217
H                     2.2017   -0.8414   -0.8643
H                     0.9215    1.2185    1.0088
H                    -0.3535   -0.1388   -1.3168
H                    -1.5086    1.6096    0.0457
H                    -2.4833    0.0969   -0.0417
H                    -1.5627    0.4833    1.463
H                    -1.0695   -1.9979   -0.3804

