%nproc=32
%mem=180GB
%chk=G4.Frag_725.chk
#P G4

Frag_725

0 1
C                    -0.91313  -1.05002  -0.05782
C                    -0.15481   0.24929   0.04285
C                     1.35153   0.32434  -0.05682
N                    -0.81474   1.34784   0.18094
N                    -1.38371   2.33552   0.31282
H                    -0.75358  -1.57567  -1.02673
H                    -1.9895   -0.88214   0.04156
H                    -0.59103  -1.72689   0.72987
H                     1.91525   1.02865  -1.05554
H                     1.58802   0.63727   0.70392
H                     1.74561  -0.68818   0.11005

