%nproc=32
%mem=180MB
%chk=G4.Frag_578.chk
#P G4

Frag_578

0 1
O                    -1.3057    0.9785    0.3852
C                    -0.6223    0.123    -0.4904
C                     0.5808   -0.5121    0.2079
O                     1.4607    0.4762    0.671
H                    -1.8236    0.3983    1.0023
H                    -0.2729    0.7103   -1.3659
H                    -1.3041   -0.6735   -0.8657
H                     1.1044   -1.1998   -0.4943
H                     0.2299   -1.1138    1.073
H                     1.9527    0.8129   -0.123

