%nproc=32
%mem=180GB
%chk=G4.Frag_435.chk
#P G4

Frag_435

0 1
C                    -1.6039   -0.2192    0.8073
C                    -0.7634   -0.3459   -0.4732
O                    -0.9562    0.7605   -1.321
C                     0.7411   -0.5947   -0.1873
C                     1.4574    0.5887    0.4827
O                     1.4093   -0.9593   -1.3692
H                    -1.334     0.6932    1.3782
H                    -2.6801   -0.156     0.5403
H                    -1.4561   -1.1093    1.455
H                    -1.1429   -1.2421   -1.0112
H                    -0.8169    1.5852   -0.7872
H                     0.8155   -1.4595    0.5078
H                     2.5193    0.3204    0.6669
H                     0.9938    0.8292    1.4612
H                     1.4372    1.4891   -0.1661
H                     1.38     -0.1802   -1.9843

