%nproc=32
%mem=180MB
%chk=G4.Frag_1130.chk
#P G4

Frag_1130

0 1
C                    -1.0967   -1.3921    0.1631
C                    -0.4444   -0.2289    0.0894
N                    -1.1877    0.9798   -0.1226
N                     0.9875   -0.1932    0.2578
C                     1.7257    0.7095   -0.3143
O                     1.6053   -1.1591    1.0215
H                    -2.1731   -1.4316    0.0536
H                    -0.5663   -2.3218    0.3237
H                    -0.7362    1.9157   -0.0278
H                    -2.2163    0.9539   -0.304
H                     2.7994    0.7057   -0.1729
H                     1.3028    1.4621   -0.9673

