%nproc=32
%mem=180GB
%chk=G4.Frag_1135.chk
#P G4

Frag_1135

0 1
N                    -0.96468   0.07313   0.30488
N                     0.11969   0.95484  -0.06275
N                     1.09531   0.10746  -0.35443
O                     0.82621  -1.1864   -0.24866
O                     2.18387   0.49384  -0.70768
H                    -1.25763   0.25573   1.26281
H                    -1.75873   0.22699  -0.31571
H                    -0.24404  -0.92558   0.09453

