%nproc=32
%mem=180GB
%chk=G4.Frag_663.chk
#P G4

Frag_663

0 1
C                    -1.4321    0.0396    0.8053
C                    -0.755     0.2098   -0.5627
O                    -0.9496    1.5227   -1.0222
C                     0.7591   -0.0964   -0.5455
N                     1.0155   -1.5016   -0.2098
N                     1.4824    0.8084    0.3559
H                    -2.5201    0.2404    0.7078
H                    -1.3148   -0.9976    1.1808
H                    -1.0169    0.7535    1.5468
H                    -1.2319   -0.5043   -1.275
H                    -1.8913    1.5844   -1.3314
H                     1.13      0.08     -1.5814
H                     2.0195   -1.7094   -0.417
H                     0.8846   -1.6539    0.816
H                     1.3132    0.5322    1.3498
H                     2.5073    0.6921    0.1827

