%nproc=32
%mem=180MB
%chk=G4.Frag_550.chk
#P G4

Frag_550

0 1
C                    -1.0745    1.2715   -0.1913
C                    -0.5772    0.0256   -0.1306
C                    -1.5031   -1.1411   -0.3537
C                     0.9004   -0.2099    0.1489
N                     1.7227    0.5281   -0.81
N                     1.2465    0.195     1.5133
H                    -2.1284    1.44     -0.393
H                    -0.4363    2.1377   -0.0472
H                    -1.9488   -1.0779   -1.369
H                    -0.9688   -2.1098   -0.2663
H                    -2.3167   -1.1242    0.4022
H                     1.1333   -1.294     0.0476
H                     2.7273    0.32     -0.6051
H                     1.5331    0.1462   -1.7655
H                     0.6329   -0.3234    2.1837
H                     1.0576    1.2163    1.6359

