%nproc=32
%mem=180GB
%chk=G4.Frag_784.chk
#P G4

Frag_784

0 1
C                    -0.2133    1.3182   -0.202
C                     0.0377   -0.1979   -0.0384
C                    -1.2729   -0.9444   -0.3
O                     0.9851   -0.6618   -0.9755
O                     0.4454   -0.5053    1.2819
O                     1.6247    0.0561    1.4846
H                    -0.5831    1.5402   -1.2261
H                     0.7217    1.8957   -0.0423
H                    -0.9675    1.6665    0.5359
H                    -1.1161   -2.0384   -0.184
H                    -1.6342   -0.7501   -1.333
H                    -2.0556   -0.6244    0.4214
H                     1.7679   -0.0517   -0.962
H                     2.2603   -0.7028    1.5396

