%nproc=32
%mem=180MB
%chk=G4.Frag_926.chk
#P G4

Frag_926

0 1
C                     1.5228    1.1076    0.5775
N                     0.9911   -0.1784    0.1037
N                     1.4863   -0.4129   -1.2007
C                    -0.4976   -0.3121    0.2225
C                    -1.2682    0.8686   -0.421
N                    -0.8457   -0.3486    1.6481
N                    -0.9548   -1.5698   -0.3912
H                     2.6266    1.035     0.6764
H                     1.1146    1.3612    1.5786
H                     1.2906    1.9269   -0.1373
H                     0.8859    0.0426   -1.9227
H                     1.5079   -1.4444   -1.3661
H                    -1.063     1.8198    0.1133
H                    -2.3617    0.6829   -0.3524
H                    -1.0247    0.9984   -1.4937
H                    -0.3212   -1.1307    2.1044
H                    -1.864    -0.568     1.7511
H                    -0.8736   -1.5213   -1.4326
H                    -0.3513   -2.3568   -0.0579

