%nproc=32
%mem=180GB
%chk=G4.Frag_967.chk
#P G4

Frag_967

0 1
C                    -1.1249   -0.3027   -0.2918
C                     0.0206    0.6041    0.1459
O                     1.2105    0.2557   -0.5196
O                     1.7167   -0.7788    0.1275
H                    -2.0671    0.0228    0.1973
H                    -0.9161   -1.3538   -0.0006
H                    -1.2536   -0.2475   -1.3936
H                     0.1409    0.5674    1.2537
H                    -0.2356    1.6509   -0.1219
H                     2.5086   -0.4181    0.6032

