%nproc=32
%mem=180GB
%chk=G4.Frag_805.chk
#P G4

Frag_805

0 1
N                     2.2305    0.2305   -0.4557
C                     1.1279   -0.0359   -0.2268
C                    -0.2693   -0.3736    0.0633
O                    -1.1115    0.659    -0.3685
H                    -0.5327   -1.3048   -0.4792
H                    -0.3929   -0.5549    1.1543
H                    -1.0519    1.3796    0.3125

