%nproc=32
%mem=180MB
%chk=G4.Frag_1042.chk
#P G4

Frag_1042

0 1
N                    -1.5011   -0.0154    0.0281
O                    -0.3238   -0.2243   -0.6152
C                     0.684    -0.0514    0.3492
O                     1.9352   -0.2563   -0.2434
H                    -1.9916    0.7529   -0.4829
H                    -2.0761   -0.8771   -0.1082
H                     0.5633   -0.7953    1.1683
H                     0.6427    0.9747    0.7861
H                     2.0673    0.4922   -0.882

