%nproc=32
%mem=180GB
%chk=G4.Frag_506.chk
#P G4

Frag_506

0 1
C                    -1.02177   0.67116   0.98066
C                    -0.36175   0.00544   0.01894
N                    -0.87104  -0.98605  -0.86475
C                     1.0722    0.36621  -0.22471
O                     1.69861   1.20411   0.37192
O                     1.62482  -0.37729  -1.22085
H                    -0.50458   1.43256   1.51463
H                    -2.06112   0.46723   1.21413
H                    -1.82388  -1.28249  -0.37718
H                    -0.29354  -1.42291  -1.11106
H                     2.54195  -0.07795  -1.29474

