%nproc=32
%mem=180GB
%chk=G4.Frag_854.chk
#P G4

Frag_854

0 1
C                     1.9476   -0.2944    0.0379
N                     0.56     -0.6603    0.3413
C                    -0.4099    0.2906   -0.2463
C                    -1.8407   -0.1385    0.1207
O                    -0.2882    0.3032   -1.6478
O                    -0.1801    1.5968    0.2282
H                     2.6298   -1.0466    0.4871
H                     2.1226   -0.2922   -1.0588
H                     2.2013    0.7013    0.462
H                     0.454    -0.6612    1.3834
H                    -1.9818   -0.1276    1.2227
H                    -2.0426   -1.1664   -0.2496
H                    -2.5756    0.557    -0.3378
H                    -0.3587   -0.6365   -1.9624
H                    -0.2378    1.5747    1.2194

