%nproc=32
%mem=180MB
%chk=G4.Frag_1107.chk
#P G4

Frag_1107

0 1
N                    -1.6423    0.1669    0.6405
C                    -0.3907    0.1329   -0.1229
N                    -0.4094   -1.0267   -1.0265
N                    -0.2996    1.363    -0.9198
C                     0.7977    0.0415    0.8697
O                     2.0299    0.057     0.1974
H                    -2.443     0.2184   -0.0314
H                    -1.7503   -0.7297    1.1693
H                    -0.3907   -1.9081   -0.463
H                     0.449    -1.0237   -1.6239
H                     0.5933    1.3683   -1.4647
H                    -0.2761    2.1886   -0.2771
H                     0.7067   -0.8736    1.5006
H                     0.7666    0.9118    1.5598
H                     2.259    -0.8867   -0.0081

