%nproc=32
%mem=180GB
%chk=G4.Frag_953.chk
#P G4

Frag_953

0 1
N                    -1.2768   -0.5339   -0.0122
C                    -0.3212    0.5691   -0.063
O                     0.8889    0.1523   -0.6505
O                     1.5681   -0.4772    0.2913
H                    -1.3644   -0.937    -0.9734
H                    -0.8889   -1.2828    0.6058
H                    -0.7502    1.3842   -0.683
H                    -0.1636    0.9858    0.959
H                     2.3081    0.1397    0.5261

