%nproc=32
%mem=180GB
%chk=G4.Frag_565.chk
#P G4

Frag_565

0 1
C                     1.5796   -0.9416   -0.4592
C                     0.6414    0.2659   -0.3352
C                     0.8214    0.9702    1.0232
N                    -0.7654   -0.1182   -0.6294
C                    -1.4047   -0.8903    0.4532
N                    -1.5287    1.0479   -0.8647
H                     2.6367   -0.5996   -0.4621
H                     1.3846   -1.4777   -1.4123
H                     1.4505   -1.6481    0.3865
H                     0.9793    0.9841   -1.1167
H                     0.1085    1.8156    1.1202
H                     1.8517    1.3784    1.1001
H                     0.6682    0.2644    1.8667
H                    -1.6044   -0.2547    1.3433
H                    -2.3743   -1.2961    0.0945
H                    -0.7845   -1.7602    0.7483
H                    -2.4997    0.756    -1.125
H                    -1.1602    1.5038   -1.7313

