%nproc=32
%mem=180GB
%chk=G4.Frag_815.chk
#P G4

Frag_815

0 1
C                    -0.626    -1.5587    0.1158
C                    -0.1682   -0.3016    0.0538
C                    -1.1443    0.8439    0.0351
N                     1.2442   -0.036    -0.0541
N                     1.7029    1.2783   -0.2183
O                     2.0762   -0.9673   -0.0056
H                    -1.6876   -1.7654    0.1718
H                     0.0484   -2.405     0.1089
H                    -1.2134    1.2521   -0.9947
H                    -0.7976    1.6454    0.7205
H                    -2.1585    0.5311    0.3652
H                     2.7238    1.4831   -0.2984

