%nproc=32
%mem=180GB
%chk=G4.Frag_492.chk
#P G4

Frag_492

0 1
C                     1.2818    0.3089    0.2018
O                     0.1018   -0.0747    0.8728
C                    -0.8402   -0.5704   -0.0579
O                    -1.4399    0.4836   -0.7621
H                     1.9826    0.7468    0.942
H                     1.7847   -0.5714   -0.2562
H                     1.0794    1.0857   -0.5688
H                    -0.3851   -1.2899   -0.7764
H                    -1.6219   -1.1344    0.4969
H                    -1.9432    1.0157   -0.0921

