%nproc=32
%mem=180GB
%chk=G4.Frag_890.chk
#P G4

Frag_890

0 1
N                    -1.45582  -0.22642  -0.07581
N                    -0.38884   0.46608  -0.05701
N                     0.84764  -0.12478   0.00184
O                    -0.35338   1.69221  -0.16843
H                    -1.19158  -1.20833   0.00869
H                     1.61536   0.52199   0.36015
H                     0.92662  -1.12065   0.55056

