%nproc=32
%mem=180GB
%chk=G4.Frag_662.chk
#P G4

Frag_662

0 1
C                    -1.6828   -0.4465    0.1339
N                    -0.3935    0.1668   -0.1722
O                    -0.3658    1.3514   -0.8316
C                     0.8358   -0.4829    0.1896
N                     2.0939    0.1118   -0.1332
O                     0.8134   -1.5871    0.7976
H                    -1.7891   -0.5699    1.2323
H                    -1.7547   -1.4386   -0.3595
H                    -2.5111    0.1953   -0.2343
H                    -0.3765    2.0411   -0.1192
H                     2.147     1.0243   -0.6369
H                     2.9834   -0.3655    0.1335

