%nproc=32
%mem=180MB
%chk=G4.Frag_488.chk
#P G4

Frag_488

0 1
C                    -0.3393    1.5427   -0.5745
C                    -0.5307    0.3184   -0.0629
C                    -1.8916   -0.0497    0.4633
N                     0.554    -0.6293    0.0656
C                     1.8792   -0.3973   -0.5092
O                     0.334    -1.8042    0.7075
H                    -1.154     2.2537   -0.6349
H                     0.6242    1.8685   -0.9397
H                    -2.6901    0.5859    0.023
H                    -1.9041    0.0686    1.5668
H                    -2.1243   -1.105     0.2094
H                     1.7932   -0.2248   -1.6028
H                     2.3547    0.48     -0.0225
H                     2.5298   -1.2823   -0.3442
H                     0.565    -1.6252    1.6551

