%nproc=32
%mem=180MB
%chk=G4.Frag_730.chk
#P G4

Frag_730

0 1
C                     2.3017   -0.954     0.103
C                     1.2268   -0.434     0.2705
C                    -0.0832    0.1998    0.4754
C                    -1.1693   -0.5695   -0.2842
N                    -0.0238    1.5969    0.0451
H                     3.245    -1.4104   -0.0443
H                    -0.3145    0.1667    1.5622
H                    -0.9585   -0.5747   -1.3756
H                    -2.1593   -0.096    -0.1132
H                    -1.2188   -1.6192    0.0775
H                     0.0878    1.6375   -0.9951
H                    -0.9339    2.0568    0.2786

