%nproc=32
%mem=180GB
%chk=G4.Frag_801.chk
#P G4

Frag_801

0 1
C                     1.38978   0.4558   -0.10085
C                     0.54153  -0.31562  -0.53801
C                    -0.89906  -0.51568  -0.06497
O                    -1.62931   0.64033  -0.45603
O                    -1.00425  -0.79877   1.35507
H                     2.41177   0.62045  -0.45783
H                     1.10974   0.96068   0.63782
H                     0.86794  -0.78286  -1.27622
H                    -1.39968  -1.39495  -0.56326
H                    -1.06195   1.44212  -0.34488
H                    -0.32653  -0.2919    1.80905

