%nproc=32
%mem=180MB
%chk=G4.Frag_534.chk
#P G4

Frag_534

0 1
C                    -1.7463   -0.1694    0.147
C                    -0.3282    0.2174   -0.1083
N                    -0.0589    1.43     -0.4813
O                     0.6781   -0.7453    0.0392
N                     2.0126   -0.4487   -0.1424
H                    -1.7899   -1.1723    0.6213
H                    -2.2241    0.5681    0.8259
H                    -2.3028   -0.1994   -0.8131
H                     0.9115    1.7555   -0.6847
H                     2.3176    0.1179    0.6815
H                     2.5304   -1.3539   -0.085

