%nproc=32
%mem=180GB
%chk=G4.Frag_1150.chk
#P G4

Frag_1150

0 1
C                     1.8372   -0.1478    0.7895
N                     0.6086   -0.5031    0.5639
O                     0.1043   -1.5984    1.2295
N                    -0.211     0.2045   -0.342
C                    -1.5767   -0.2404   -0.5991
O                     0.2607    1.2916   -1.0043
H                     2.4473   -0.7059    1.4888
H                     2.2811    0.7041    0.2912
H                    -1.5641   -1.2766   -0.9973
H                    -2.1626   -0.2127    0.3433
H                    -2.065     0.4233   -1.3439
H                     0.0402    2.0614   -0.4197

