%nproc=32
%mem=180MB
%chk=G4.Frag_1142.chk
#P G4

Frag_1142

0 1
C                    -1.803    -0.1623    0.3228
C                    -0.6139    0.5559   -0.2356
O                    -0.7906    1.6087   -0.9063
N                     0.7181    0.0522   -0.0263
N                     0.9154   -1.1357    0.7006
N                     1.8321    0.7579   -0.517
H                    -1.9106   -1.1481   -0.1756
H                    -1.6717   -0.3137    1.4145
H                    -2.7295    0.4271    0.1549
H                     1.9431   -1.28      0.8296
H                     0.5778   -1.9237    0.1024
H                     1.7266    0.8411   -1.5539
H                     1.8063    1.7207   -0.1101

