%nproc=32
%mem=180MB
%chk=G4.Frag_573.chk
#P G4

Frag_573

0 1
C                     0.5709   -0.2835    0.6817
C                    -0.1465    0.6006   -0.3027
N                     0.1053    1.8706   -0.3399
N                    -1.1171    0.0696   -1.2166
N                    -1.4441   -1.1604   -1.2698
H                     1.1423   -1.0631    0.136
H                    -0.1668   -0.7679    1.355
H                     1.2834    0.2957    1.3066
H                     0.7994    2.3241    0.2956
H                    -1.0266   -1.8855   -0.6458

