%nproc=32
%mem=180GB
%chk=G4.Frag_734.chk
#P G4

Frag_734

0 1
N                    -2.0386    0.5368   -0.2025
C                    -0.7738    0.689     0.0324
C                     0.1772   -0.4316   -0.069
N                     1.5625   -0.2175    0.1989
O                    -0.2223   -1.5826   -0.3915
H                    -2.4531   -0.3824   -0.4752
H                    -0.408     1.6685    0.3109
H                     2.2408   -1.0082    0.1285
H                     1.9151    0.728     0.4677

