%nproc=32
%mem=180GB
%chk=G4.Frag_971.chk
#P G4

Frag_971

0 1
C                     1.6773    0.5222   -0.5214
C                     0.6311   -0.0099   -0.2466
C                    -0.617    -0.6437    0.0807
O                    -0.618    -1.7932    0.5919
O                    -1.8231    0.0046   -0.1635
H                     2.5958    0.9893   -0.7627
H                    -1.8461    0.9306   -0.5744

