%nproc=32
%mem=180GB
%chk=G4.Frag_785.chk
#P G4

Frag_785

0 1
C                    -1.1353   -0.4745   -0.4396
C                    -0.2469    0.5172    0.3468
O                     0.0634    1.6488   -0.4365
O                    -0.9756    0.9702    1.4584
O                     0.9389   -0.1052    0.8175
N                     1.6893   -0.46     -0.2596
H                    -1.3562   -1.3671    0.1837
H                    -2.0941    0.0142   -0.7151
H                    -0.6363   -0.8126   -1.3723
H                     0.3513    1.3461   -1.3368
H                    -1.078     0.2033    2.0816
H                     1.8623   -1.4874   -0.1808
H                     2.6171    0.007    -0.1473

