%nproc=32
%mem=180GB
%chk=G4.Frag_1032.chk
#P G4

Frag_1032

0 1
N                     1.86849  -1.01824  -0.57657
N                     0.64614  -1.18063  -0.3655
N                    -0.13833  -0.1212    0.24793
N                    -1.50677  -0.33429   0.08733
N                     0.39238   1.15092   0.1254
H                     2.11296  -0.02189  -0.31851
H                    -1.83646  -1.03101   0.79238
H                    -1.70438  -0.71854  -0.79192
H                     0.21785   1.3251    1.00222
H                    -0.05187   1.94968  -0.59266

