%nproc=32
%mem=180MB
%chk=G4.Frag_769.chk
#P G4

Frag_769

0 1
C                     2.1275   -0.145     0.1272
N                     1.0843   -0.7558    0.5744
C                    -0.2875   -0.3732    0.2763
C                    -0.5653    1.054     0.7911
C                    -0.5473   -0.4648   -1.2413
O                    -1.1328   -1.278     0.945
H                     3.1141   -0.5009    0.4019
H                     2.0464    0.7216   -0.5211
H                    -1.6293    1.3277    0.6249
H                     0.0665    1.8006    0.2656
H                    -0.3538    1.1126    1.8802
H                    -1.6107   -0.2368   -1.4688
H                    -0.3229   -1.4908   -1.6036
H                     0.0848    0.2561   -1.8012
H                    -2.0742   -1.0273    0.7493

