%nproc=32
%mem=180GB
%chk=G4.Frag_1055.chk
#P G4

Frag_1055

0 1
C                     1.2479    0.5602    0.7503
N                     0.7429   -0.0376   -0.5006
N                     1.0478   -1.4174   -0.5502
C                    -0.7094    0.1468   -0.6951
N                    -1.4783   -0.4387    0.4101
O                    -1.0012    1.5154   -0.8264
H                     0.8337    0.0515    1.6475
H                     0.9945    1.6405    0.7936
H                     2.355     0.4779    0.7808
H                     0.7828   -1.8821    0.3507
H                     2.0816   -1.5151   -0.6746
H                    -0.9948   -0.3684   -1.6437
H                    -2.4703   -0.5443    0.0959
H                    -1.494     0.2339    1.2109
H                    -1.9381    1.5773   -1.1491

