%nproc=32
%mem=180MB
%chk=G4.Frag_718.chk
#P G4

Frag_718

0 1
C                     1.7408   -0.1752    0.209
C                     0.5069   -0.3042   -0.6808
N                    -0.5815    0.5634   -0.1995
C                    -1.3285   -0.0709    0.8935
O                    -1.4504    0.7422   -1.2273
H                     2.587    -0.7313   -0.2467
H                     2.0292    0.8927    0.3103
H                     1.548    -0.601     1.2151
H                     0.1885   -1.3697   -0.7399
H                     0.8056    0.0094   -1.7065
H                    -2.1653    0.5909    1.2038
H                    -0.6764   -0.2161    1.7793
H                    -1.7522   -1.0504    0.5781
H                    -1.4517    1.7203   -1.3882

