%nproc=32
%mem=180MB
%chk=G4.Frag_850.chk
#P G4

Frag_850

0 1
C                     2.0418    0.537    -0.3124
N                     0.953    -0.314    -0.8183
N                    -0.2789   -0.2001   -0.1087
C                    -1.1737   -1.2242   -0.6859
C                    -0.8864    1.1342   -0.323
C                    -0.1059   -0.4837    1.3362
H                     1.7571    1.6066   -0.2863
H                     2.3898    0.1923    0.6826
H                     2.9038    0.4476   -1.0045
H                    -0.7395   -2.242    -0.5626
H                    -2.1736   -1.2148   -0.1959
H                    -1.3225   -1.0499   -1.7756
H                    -1.9463    1.1492    0.0169
H                    -0.8609    1.4102   -1.4006
H                    -0.3622    1.9237    0.2557
H                    -1.0916   -0.5934    1.8414
H                     0.4246    0.3443    1.8544
H                     0.4713   -1.4231    1.4864

