%nproc=32
%mem=180GB
%chk=G4.Frag_918.chk
#P G4

Frag_918

0 1
C                     1.8204   -0.7563   -0.6006
C                     0.6919    0.2911   -0.5619
N                     1.171     1.5387    0.0454
C                    -0.5859   -0.2376    0.1632
C                    -1.6967    0.8402    0.1405
N                    -0.2641   -0.5933    1.554
N                    -1.065    -1.441    -0.534
H                     2.1331   -1.0411    0.4263
H                     1.4898   -1.6673   -1.1422
H                     2.7014   -0.3425   -1.1357
H                     0.4158    0.5117   -1.6185
H                     1.6777    1.3289    0.936
H                     1.8659    1.978    -0.6017
H                    -2.622     0.4523    0.6177
H                    -1.3816    1.7499    0.6943
H                    -1.9376    1.1303   -0.9046
H                    -1.1054   -1.0217    2.0052
H                    -0.0481    0.2708    2.1019
H                    -1.3282   -1.1951   -1.5167
H                    -1.9324   -1.7958   -0.0684

