%nproc=32
%mem=180MB
%chk=G4.Frag_1072.chk
#P G4

Frag_1072

0 1
C                     1.5155   -1.1006   -0.2662
C                     0.6788    0.18     -0.0616
N                     0.8276    1.0138   -1.2648
N                     1.2335    0.8988    1.0978
C                    -0.8421   -0.1767    0.1541
N                    -1.3526   -0.8995   -1.0243
N                    -1.6287    1.0519    0.3387
O                    -0.9964   -0.9792    1.306
H                     2.5791   -0.8375   -0.4519
H                     1.4874   -1.7469    0.6359
H                     1.1492   -1.6813   -1.1392
H                     0.3011    1.909    -1.1421
H                     1.8335    1.2812   -1.3757
H                     0.8088    1.8507    1.1746
H                     1.0191    0.3803    1.9803
H                    -2.3226   -1.2366   -0.8237
H                    -1.4246   -0.2389   -1.8323
H                    -1.4353    1.4451    1.2881
H                    -2.6453    0.8051    0.3419
H                    -0.7858   -1.9185    1.0644

