%nproc=32
%mem=180GB
%chk=G4.Frag_1056.chk
#P G4

Frag_1056

0 1
N                    -0.9768   -0.98      0.8142
C                    -0.0924   -0.0587    0.1058
N                    -0.5306    1.3156    0.3493
O                     1.2188   -0.2289    0.5936
O                     2.0338    0.2587   -0.3249
H                    -1.9281   -0.9203    0.383
H                    -0.6365   -1.9533    0.6379
H                    -0.146    -0.2846   -0.9892
H                     0.0864    1.9596   -0.1967
H                    -1.4907    1.4292   -0.0502
H                     2.4621   -0.5374   -0.7325

