%nproc=32
%mem=180MB
%chk=G4.Frag_933.chk
#P G4

Frag_933

0 1
C                    -0.2311    0.8635   -1.1439
C                     0.2685   -0.0969   -0.0932
C                     1.6116   -0.7528   -0.2908
N                    -0.4363   -0.3697    0.9786
N                    -1.6963    0.2076    1.2238
O                     0.0588   -1.2534    1.9131
H                    -0.3855    1.8669   -0.6945
H                     0.492     0.9744   -1.9785
H                    -1.1861    0.4917   -1.571
H                     1.4875   -1.8557   -0.3226
H                     2.0963   -0.4324   -1.2364
H                     2.2851   -0.4856    0.5505
H                    -2.1472    0.8857    0.5716
H                    -2.2173   -0.0432    2.0932

