%nproc=32
%mem=180GB
%chk=G4.Frag_1154.chk
#P G4

Frag_1154

0 1
C                    -0.94992  -0.22702   0.08617
C                     0.3639    0.4962    0.28794
O                     0.51242   1.46633   0.99476
C                     1.51765  -0.06406  -0.47201
N                     2.41337  -0.50821  -1.05847
H                    -1.52575  -0.69794   0.90316
H                    -1.46975   0.61557  -0.4699
H                    -0.86181  -1.08088  -0.32675

