%nproc=32
%mem=180MB
%chk=G4.Frag_1058.chk
#P G4

Frag_1058

0 1
O                     0.7462    0.32      1.7403
C                     0.7879    0.0644    0.5077
O                     2.0233   -0.0561   -0.1223
C                    -0.488    -0.0517   -0.2816
O                    -1.4882   -0.677     0.4818
O                    -0.92      1.2214   -0.6811
H                     2.0911   -0.2354   -1.1169
H                    -0.2972   -0.6512   -1.2002
H                    -1.2477   -1.6392    0.5343
H                    -1.2073    1.7048    0.1379

