%nproc=32
%mem=180GB
%chk=G4.Frag_542.chk
#P G4

Frag_542

0 1
C                    -0.2593   -0.5755   -1.346
C                    -0.013    -0.0243    0.0677
C                    -1.368     0.292     0.7401
N                     0.707    -1.0314    0.8578
C                     0.8443    1.2232   -0.0451
O                     0.3254    2.3697    0.0289
O                     2.2118    1.1225   -0.294
H                    -0.7731    0.1812   -1.978
H                    -0.8937   -1.4871   -1.3047
H                     0.7034   -0.8459   -1.8313
H                    -1.9764   -0.6319    0.8453
H                    -1.208     0.7207    1.7529
H                    -1.9495    1.021     0.135
H                     0.1196   -1.893     0.9481
H                     0.8625   -0.6653    1.8261
H                     2.6668    0.2242   -0.4028

