%nproc=32
%mem=180MB
%chk=G4.Frag_961.chk
#P G4

Frag_961

0 1
C                    -1.4552   -0.7559   -0.0534
C                    -0.1152   -0.0385    0.1866
C                    -0.3549    1.4821    0.1882
N                     0.4136   -0.45      1.4937
C                     0.8613   -0.4031   -0.9164
N                     2.0598    0.0584   -0.9105
H                    -2.1758   -0.5124    0.7571
H                    -1.3098   -1.8578   -0.0679
H                    -1.8988   -0.4475   -1.0251
H                    -1.0756    1.7595    0.9875
H                     0.5938    2.0299    0.3751
H                    -0.7648    1.8154   -0.79
H                     0.6342   -1.4732    1.4719
H                     1.3129    0.0504    1.6843
H                     0.5527   -1.0654   -1.722
H                     2.7218   -0.1919   -1.6591

