%nproc=32
%mem=180MB
%chk=G4.Frag_523.chk
#P G4

Frag_523

0 1
C                     1.5242    0.1157    0.0406
O                     0.6202   -0.731     0.7155
C                    -0.6822   -0.5852    0.183
N                    -1.4431    0.3667    0.9857
H                     1.6463   -0.2004   -1.019
H                     2.5162    0.0366    0.5308
H                     1.2065    1.1802    0.0944
H                    -1.1825   -1.5754    0.2425
H                    -0.7      -0.2884   -0.8943
H                    -1.0749    1.3258    0.7933
H                    -2.4308    0.3554    0.6423

