%nproc=32
%mem=180GB
%chk=G4.Frag_849.chk
#P G4

Frag_849

0 1
C                     2.1265    0.5593   -0.0924
C                     1.0036   -0.4395   -0.2068
O                     1.2521   -1.517    -0.7327
N                    -0.3537   -0.1133    0.2191
C                    -0.9595    0.8233   -0.7494
C                    -1.1906   -1.3277    0.3491
N                    -0.2774    0.5079    1.4864
H                     2.554     0.7532   -1.0985
H                     2.9208    0.1492    0.5657
H                     1.7777    1.5241    0.33
H                    -0.9712    0.3815   -1.7711
H                    -0.3919    1.7792   -0.7882
H                    -2.0081    1.066    -0.4667
H                    -2.2103   -1.072     0.7141
H                    -0.7373   -2.0396    1.0749
H                    -1.3024   -1.8431   -0.6311
H                    -1.2325    0.8084    1.7976

