%nproc=32
%mem=180MB
%chk=G4.Frag_1104.chk
#P G4

Frag_1104

0 1
C                    -0.9864    0.0754    0.0057
C                     0.4724   -0.0361   -0.0027
N                     1.6261   -0.1243   -0.0094
O                     2.9535   -0.2258   -0.017
H                    -1.3854   -0.3613    0.9443
H                    -1.4043   -0.4724   -0.8639
H                    -1.276     1.1445   -0.057

