%nproc=32
%mem=180MB
%chk=G4.Frag_601.chk
#P G4

Frag_601

0 1
C                     1.6759    0.4726    0.0474
C                     0.7555   -0.6298   -0.3819
O                     1.2484   -1.6841   -0.8657
N                    -0.6717   -0.5099   -0.254
C                    -1.3002    0.6992    0.2731
O                    -1.461    -1.5352   -0.6603
H                     1.4646    1.3897   -0.5406
H                     2.7353    0.1824   -0.1188
H                     1.5332    0.683     1.1276
H                    -1.0337    1.5715   -0.3596
H                    -2.4053    0.5883    0.2727
H                    -0.9645    0.876     1.3163
H                    -1.5763   -2.1037    0.144

