%nproc=32
%mem=180GB
%chk=G4.Frag_1027.chk
#P G4

Frag_1027

0 1
C                    -1.0675   -0.3032    0.3161
C                     0.1494   -0.1234   -0.5832
C                     1.2576    0.5574    0.1613
O                     2.2913   -0.04      0.4154
H                    -1.4384    0.6839    0.6664
H                    -1.8784   -0.8058   -0.2521
H                    -0.8073   -0.9309    1.1953
H                     0.4859   -1.1181   -0.9493
H                    -0.1291    0.4962   -1.462
H                     1.1365    1.584     0.492

