%nproc=32
%mem=180GB
%chk=G4.Frag_866.chk
#P G4

Frag_866

0 1
C                    -0.8352    1.0732   -0.7404
C                    -0.2411   -0.0962    0.0584
N                    -0.826    -1.3599   -0.4151
N                    -0.5641    0.0865    1.4781
C                     1.2628   -0.0938   -0.1207
O                     1.7919   -0.6908   -1.0974
O                     2.0664    0.6284    0.7579
H                    -0.5763    0.9841   -1.8178
H                    -0.4433    2.0415   -0.3603
H                    -1.9424    1.0804   -0.6468
H                    -0.3648   -2.1599    0.0775
H                    -0.639    -1.4777   -1.4381
H                    -0.1582   -0.7072    2.0267
H                    -1.6022    0.0323    1.6008
H                     3.0717    0.6591    0.6373

