%nproc=32
%mem=180GB
%chk=G4.Frag_441.chk
#P G4

Frag_441

0 1
C                     0.0258   -0.41838   1.47201
C                    -0.25973  -0.06185   0.01551
C                    -1.51868  -0.81571  -0.40714
C                    -0.46948   1.49141  -0.18668
C                     0.92573  -0.52697  -0.8815
N                     2.13204   0.05355  -0.43514
O                     0.81141  -1.35508  -1.84012
H                     0.22165  -1.50746   1.62977
H                     0.87526   0.13587   1.83492
H                    -0.83394  -0.1553    2.08577
H                    -1.73494  -0.59505  -1.44288
H                    -1.39332  -1.91533  -0.28862
H                    -2.37794  -0.50673   0.20234
H                     0.40841   2.06777   0.13826
H                    -0.65691   1.76506  -1.22145
H                    -1.34192   1.83072   0.38539
H                     2.9261   -0.22572  -1.40163
H                     2.26047   0.7391   -0.21373

