%nproc=32
%mem=180MB
%chk=G4.Frag_535.chk
#P G4

Frag_535

0 1
N                    -1.1401   -1.3691    0.7738
C                    -0.9003   -0.1554    0.3922
O                    -1.6346    0.888     0.9486
C                     0.1812    0.1341   -0.6095
N                     1.4422    0.3819    0.0799
H                    -0.6051   -2.1833    0.3965
H                    -1.4595    1.8511    0.6879
H                     0.2932   -0.7159   -1.3196
H                    -0.0994    1.0332   -1.1996
H                     2.149     0.6577   -0.6397
H                     1.7735   -0.5221    0.4896

