%nproc=32
%mem=180GB
%chk=G4.Frag_707.chk
#P G4

Frag_707

0 1
C                     2.29647   0.35045   0.22944
C                     1.11494   0.18246   0.07358
C                    -0.29375  -0.03317  -0.05504
C                    -0.92159   0.22782  -1.22247
N                    -0.90844  -0.51636   1.00889
H                     3.34057   0.50638   0.33905
H                    -0.36853   0.60488  -2.09918
H                    -1.98759   0.06782  -1.32717
H                    -0.37789  -0.68841   2.29516
H                    -1.89409  -0.70197   1.38774

