%nproc=32
%mem=180MB
%chk=G4.Frag_664.chk
#P G4

Frag_664

0 1
C                     1.7221   -0.5102   -0.6027
C                     0.6153    0.3546    0.018
C                     0.5055    0.0641    1.5243
C                    -0.7241    0.1703   -0.7536
N                    -1.7504    1.1317   -0.3333
N                    -1.2297   -1.2009   -0.6381
H                     1.4835   -1.5904   -0.4992
H                     1.8403   -0.2701   -1.6809
H                     2.6927   -0.3105   -0.1001
H                     0.9316    1.4155   -0.0946
H                     0.2126   -0.9904    1.7101
H                     1.4866    0.241     2.0147
H                    -0.2278    0.741     2.0075
H                    -0.5149    0.3659   -1.8299
H                    -2.0323    0.9517    0.6563
H                    -1.3557    2.0989   -0.3838
H                    -2.0095   -1.3188   -1.3252
H                    -1.6456   -1.3434    0.3105

