%nproc=32
%mem=180GB
%chk=G4.Frag_741.chk
#P G4

Frag_741

0 1
C                    -0.91605   1.64666  -0.82032
C                    -0.24014   0.59141  -0.2336
C                    -0.95417  -0.74746  -0.09617
N                     1.07091   0.7275    0.28154
N                     1.59214  -0.52786   0.60628
H                    -1.94104   1.54571  -1.11506
H                    -0.44718   2.61934  -0.94334
H                    -0.98263  -1.14444   0.97735
H                    -0.50933  -1.51293  -0.64535
H                    -1.97395  -0.66109  -0.51745
H                     2.54889  -0.31663   1.05904
H                     1.62415  -1.51034  -0.2254
H                     1.12848  -0.71497   1.28838

