%nproc=32
%mem=180MB
%chk=G4.Frag_496.chk
#P G4

Frag_496

0 1
C                     1.717     0.4059    0.5193
C                     0.4712    0.3633    1.0057
C                    -0.7384    0.0543    0.1481
C                    -0.6552   -1.3469   -0.4643
N                    -0.9271    1.0598   -0.9005
H                     2.5478    0.633     1.1794
H                     1.9219    0.215    -0.5289
H                     0.3188    0.5593    2.0631
H                    -1.6337    0.0736    0.8081
H                    -0.5309   -2.1072    0.3363
H                    -1.5917   -1.5705   -1.0181
H                     0.1986   -1.4229   -1.1704
H                    -0.0896    1.082    -1.5265
H                    -1.0087    2.0013   -0.4514

