%nproc=32
%mem=180GB
%chk=G4.Frag_643.chk
#P G4

Frag_643

0 1
N                     1.5993    0.0628    0.0111
N                     0.2547   -0.3236    0.1301
C                    -0.7957    0.6415    0.0227
O                    -0.5256    1.852    -0.1956
O                    -2.1238    0.2508    0.1594
H                     1.7554    0.3351   -0.986
H                     2.1893   -0.7828    0.1849
H                     0.0143   -1.3196    0.3382
H                    -2.3679   -0.7163    0.3352

