%nproc=32
%mem=180GB
%chk=G4.Frag_1120.chk
#P G4

Frag_1120

0 1
C                    -1.25196  -0.10727   0.30841
N                     0.08237  -0.34567  -0.32125
N                     0.95504   0.21185   0.44903
O                     2.19855  -0.04055  -0.21549
H                    -1.21684  -0.72318   1.18579
H                    -1.58066   1.19181   0.17855
H                    -1.9818   -0.62545  -0.04918
H                     2.7952    0.43847   0.47394

