%nproc=32
%mem=180GB
%chk=G4.Frag_1041.chk
#P G4

Frag_1041

0 1
N                     1.6704    0.8117    0.117
C                     0.5908   -0.0579   -0.3536
N                     0.6002   -1.3247    0.3889
N                    -0.707     0.6414   -0.2172
N                    -1.7525   -0.0714   -0.8521
N                    -1.0301    0.8242    1.1461
H                     2.5818    0.3378   -0.0803
H                     1.6605    1.6828   -0.462
H                     0.762    -0.2776   -1.4337
H                     1.428    -1.8818    0.0753
H                     0.7407   -1.129     1.407
H                    -1.725    -1.0825   -0.5818
H                    -1.605    -0.0069   -1.8853
H                    -1.7506    1.58      1.196
H                    -1.4641   -0.0461    1.5358

