%nproc=32
%mem=180MB
%chk=G4.Frag_468.chk
#P G4

Frag_468

0 1
C                     1.4323   -0.1006   -0.1074
N                     0.2092    0.2914    0.0806
C                    -0.9052   -0.6409   -0.09
N                    -0.0396    1.6384    0.3833
H                     2.256     0.5956   -0.0054
H                     1.6554   -1.1279   -0.3708
H                    -0.6763   -1.6141    0.3964
H                    -1.0923   -0.8056   -1.1722
H                    -1.8279   -0.2346    0.3755
H                    -1.0117    1.9984    0.5101

