%nproc=32
%mem=180GB
%chk=G4.Frag_689.chk
#P G4

Frag_689

0 1
C                     1.6808   -0.0631   -0.3914
C                     0.5012    0.3519    0.0844
O                     0.3972    1.6282    0.6393
C                    -0.7203   -0.49      0.0233
N                    -0.66     -1.7864   -0.0087
N                    -2.0041    0.1372    0.0488
H                     1.8013   -1.0218   -0.8763
H                     2.5503    0.5789   -0.3318
H                     1.1919    2.2546    0.7031
H                     0.2324   -2.3266    0.011
H                    -2.8745   -0.44      0.0345
H                    -2.0962    1.1771    0.0638

