%nproc=32
%mem=180GB
%chk=G4.Frag_518.chk
#P G4

Frag_518

0 1
C                     1.83402  -0.67926   1.09816
N                     0.88684  -0.91054   0.4097
C                    -0.15971  -0.11704  -0.1237
C                    -1.14058  -1.05345  -0.90107
C                    -0.86354   0.58795   1.04136
C                     0.43138   0.92338  -1.0855
H                     2.59621  -1.23455   1.48405
H                     1.96801   0.05661   1.35383
H                    -1.54884  -1.80991  -0.23524
H                    -0.64666  -1.57592  -1.71502
H                    -1.95407  -0.49669  -1.33388
H                    -1.2537   -0.15531   1.75022
H                    -0.20885   1.27537   1.60825
H                    -1.69506   1.17162   0.65601
H                     0.97864   0.41786  -1.88982
H                    -0.34813   1.51978  -1.55123
H                     1.12395   1.61029  -0.56633

