%nproc=32
%mem=180GB
%chk=G4.Frag_857.chk
#P G4

Frag_857

0 1
C                    -1.3466   -0.9868    0.3256
C                    -0.2049   -0.0179   -0.0434
C                    -0.5883    1.4001    0.4227
N                    -0.001    -0.0151   -1.5
N                     1.0271   -0.4521    0.6443
N                     2.1057    0.3742    0.2661
H                    -2.2987   -0.676    -0.1561
H                    -1.1067   -2.0176   -0.0124
H                    -1.4963   -1.0069    1.4267
H                    -0.6735    1.434     1.5303
H                     0.1773    2.1393    0.1047
H                    -1.5614    1.7076   -0.0174
H                    -0.8946    0.2482   -1.977
H                     0.2407   -0.9827   -1.8165
H                     1.2534   -1.441     0.3757
H                     2.8197    0.3093    1.0262
H                     2.548    -0.0166   -0.5994

