%nproc=32
%mem=180GB
%chk=G4.Frag_799.chk
#P G4

Frag_799

0 1
C                    -1.1899   -0.4417    0.5881
C                    -0.3203    0.2125   -0.4886
O                    -0.6444    1.5715   -0.6437
N                     1.0991    0.0559   -0.1674
N                     1.8562   -0.9244   -0.8221
O                     1.6123    0.7096    0.7653
H                    -0.957    -1.5257    0.6551
H                    -1.0054    0.0271    1.5782
H                    -2.2633   -0.3238    0.3286
H                    -0.5323   -0.2963   -1.4544
H                    -0.5131    2.0164    0.2341
H                     2.8581   -1.0812   -0.573

