%nproc=32
%mem=180GB
%chk=G4.Frag_714.chk
#P G4

Frag_714

0 1
C                    -0.8471   -0.0808   -0.1151
N                     0.4994    0.4788   -0.1129
O                     1.3432   -0.4858    0.3285
H                    -0.9005   -0.9346   -0.824
H                    -1.1287   -0.4272    0.9038
H                    -1.5702    0.695    -0.4441
H                     0.5217    1.2483    0.5954
H                     2.0822   -0.4937   -0.3317

