%nproc=32
%mem=180MB
%chk=G4.Frag_679.chk
#P G4

Frag_679

0 1
C                    -1.3073    0.6639   -0.7544
C                    -0.3789   -0.4213   -0.2903
O                    -0.7074   -1.724    -0.6796
C                     0.72     -0.1415    0.4556
N                     1.0719    1.21      0.7802
O                     1.5566   -1.1471    0.9498
H                    -1.7062    1.2274    0.1156
H                    -0.7755    1.353    -1.444
H                    -2.1671    0.223    -1.3017
H                    -0.1261   -2.5355   -0.5281
H                     1.916     1.3906    1.3674
H                     0.5327    2.0387    0.4471
H                     1.3713   -2.1372    0.8825

