%nproc=32
%mem=180GB
%chk=G4.Frag_908.chk
#P G4

Frag_908

0 1
C                     2.266    -0.1279    0.597
C                     1.1969    0.0643    0.0738
C                    -0.1082    0.2992   -0.5655
C                    -1.1556   -0.6815   -0.0341
O                    -0.5189    1.6277   -0.3656
H                     3.2042   -0.2966    1.0564
H                     0.0087    0.1311   -1.6569
H                    -0.8495   -1.7267   -0.255
H                    -1.2806   -0.5667    1.0644
H                    -2.1324   -0.4897   -0.5267
H                    -0.6307    1.7669    0.6122

