%nproc=32
%mem=180GB
%chk=G4.Frag_1025.chk
#P G4

Frag_1025

0 1
C                     1.5356   -0.1731   -0.0545
C                     0.0337   -0.0892   -0.3071
N                    -0.6606   -1.0448    0.5572
O                    -0.4035    1.225    -0.0422
O                    -1.5612    1.3715   -0.6612
H                     2.0711    0.5309   -0.7263
H                     1.7661    0.0916    0.9998
H                     1.899    -1.2032   -0.2568
H                    -0.1387   -0.3618   -1.376
H                    -1.6623   -1.0937    0.2614
H                    -0.6469   -0.6838    1.5393
H                    -2.2322    1.4306    0.0664

