%nproc=32
%mem=180MB
%chk=G4.Frag_976.chk
#P G4

Frag_976

0 1
O                     1.6955   -0.3924    0.276
C                     0.585     0.3901    0.6171
C                    -0.6756   -0.1759   -0.0437
O                    -0.9365   -1.4631    0.4496
O                    -1.7728    0.6456    0.2528
H                     2.4728    0.0176    0.7371
H                     0.4528    0.3982    1.7226
H                     0.7465    1.4345    0.2674
H                    -0.5306   -0.2169   -1.1517
H                    -0.343    -2.0883   -0.0432
H                    -1.6941    1.4505   -0.3237

