%nproc=32
%mem=180GB
%chk=G4.Frag_830.chk
#P G4

Frag_830

0 1
C                     1.6082   -0.5049    0.012
C                     0.6086    0.5454    0.3845
O                     0.9967    1.5804    0.9899
N                    -0.7829    0.3828    0.074
N                    -1.242    -0.7823   -0.5657
O                    -1.6598    1.3667    0.397
H                     1.5261   -0.7342   -1.071
H                     1.4161   -1.4268    0.5992
H                     2.6406   -0.1535    0.2234
H                    -1.1636   -1.5646    0.1231
H                    -2.2614   -0.6652   -0.7666
H                    -1.6867    1.9562   -0.3998

