%nproc=32
%mem=180GB
%chk=G4.Frag_807.chk
#P G4

Frag_807

0 1
C                    -1.24315  -0.19673  -1.11025
C                    -0.28088  -0.09589   0.0477
C                    -0.71409  -0.47142   1.44266
C                     0.96532   0.32952  -0.16396
O                     1.86477   0.43415   0.88769
O                     1.39436   0.67837  -1.44123
H                    -1.39613   0.77473  -1.60275
H                    -0.89923  -0.89071  -1.88691
H                    -2.21662  -0.55912  -0.75978
H                    -1.75744  -0.79748   1.43472
H                    -0.10357  -1.29351   1.86084
H                    -0.64037   0.37196   2.14498
H                     2.71558   0.75312   0.20162
H                     2.31155   0.96301  -1.05543

