%nproc=32
%mem=180GB
%chk=G4.Frag_1091.chk
#P G4

Frag_1091

0 1
N                    -0.1337    1.31152   0.94485
C                    -0.02841   0.27776   0.209
N                    -1.00758  -0.38973  -0.55709
C                     1.34071  -0.35393   0.00636
O                     2.34951   0.04968   0.51903
H                    -1.10029   1.64232   0.99739
H                    -1.96424  -0.08384  -0.1609
H                    -0.79733  -1.20071  -0.65236
H                     1.34134  -1.25317  -0.67139

