%nproc=32
%mem=180MB
%chk=G4.Frag_695.chk
#P G4

Frag_695

0 1
C                     1.7861   -0.2495    0.4707
C                     0.5304    0.5196    0.1777
O                     0.6078    1.9099    0.3111
C                    -0.6194   -0.1064   -0.1774
N                    -0.7066   -1.5395   -0.1971
N                    -1.7842    0.6375   -0.5606
H                     1.648    -0.8741    1.3783
H                     2.0571   -0.8899   -0.3954
H                     2.6278    0.4505    0.6567
H                    -0.1903    2.5295    0.2902
H                    -1.5916   -2.0013   -0.503
H                     0.0751   -2.1623    0.1019
H                    -1.7467    1.6347   -0.8617
H                    -2.6933    0.1413   -0.6915

