%nproc=32
%mem=180GB
%chk=G4.Frag_752.chk
#P G4

Frag_752

0 1
C                     1.7084    0.4699   -0.5836
C                     0.5727   -0.3775   -0.0006
N                     0.5705   -0.2823    1.4643
N                    -0.7212    0.0526   -0.5745
N                    -1.727    -0.8767   -0.2251
N                    -1.068     1.324    -0.0589
H                     1.6137    1.5288   -0.2616
H                     1.6826    0.4261   -1.6933
H                     2.6903    0.0803   -0.2403
H                     0.7718   -1.4338   -0.2964
H                    -0.1408   -0.9507    1.8389
H                     1.494    -0.6227    1.819
H                    -2.63     -0.5382   -0.631
H                    -1.5248   -1.7679   -0.7341
H                    -1.5179    1.2245    0.8825
H                    -1.7742    1.7436   -0.7055

