%nproc=32
%mem=180MB
%chk=G4.Frag_1017.chk
#P G4

Frag_1017

0 1
N                    -1.2109    0.8296    0.4102
C                    -0.8477   -0.3656    0.0739
O                     0.4635   -0.7991    0.2757
N                     1.4201    0.0286    0.8248
H                    -2.1929    1.1501    0.2583
H                    -1.5661   -1.0435   -0.369
H                     2.2796   -0.5509    0.9523
H                     1.6544    0.7509    0.1062

