%nproc=32
%mem=180GB
%chk=G4.Frag_669.chk
#P G4

Frag_669

0 1
C                    -0.3798   -0.5656    1.4087
C                    -0.2822   -0.0482   -0.0429
C                    -1.2081    1.1769   -0.2005
C                    -0.7621   -1.1545   -1.0057
C                     1.1792    0.3581   -0.3962
O                     1.6338    1.3787    0.4593
O                     2.0471   -0.7493   -0.3425
H                    -1.4338   -0.8074    1.6662
H                     0.2208   -1.4898    1.5447
H                    -0.0172    0.2001    2.1274
H                    -2.2641    0.9022    0.0118
H                    -1.1559    1.5777   -1.2359
H                    -0.9168    1.9867    0.5026
H                    -0.14     -2.0692   -0.9005
H                    -0.7006   -0.8099   -2.0607
H                    -1.8171   -1.4315   -0.7913
H                     1.1896    0.7419   -1.4427
H                     2.5025    1.6879    0.0918
H                     2.3045   -0.8849    0.6063

