%nproc=32
%mem=180GB
%chk=G4.Frag_530.chk
#P G4

Frag_530

0 1
N                    -1.8341    0.4217    0.3483
C                    -0.661    -0.0406   -0.324
O                    -0.7639   -0.5221   -1.4838
C                     0.661     0.0406    0.324
N                     1.8341   -0.4217   -0.3483
O                     0.7639    0.5221    1.4838
H                    -2.7653    0.3594   -0.12
H                    -1.7838    0.826     1.3095
H                     1.7838   -0.826    -1.3095
H                     2.7653   -0.3594    0.12

