%nproc=32
%mem=180GB
%chk=G4.Frag_680.chk
#P G4

Frag_680

0 1
C                    -0.6919    1.1449   -0.2701
C                    -0.1153   -0.2665   -0.0857
N                    -1.07     -1.1124    0.646
O                     0.1164   -0.8207   -1.3576
C                     1.1941   -0.1719    0.6703
O                     1.2437   -0.4426    1.9
O                     2.3517    0.2625    0.0287
H                    -0.8701    1.6282    0.7148
H                    -1.6557    1.0964   -0.8207
H                     0.0104    1.7779   -0.8542
H                    -1.3553   -0.6365    1.5336
H                    -1.9357   -1.223     0.0687
H                     0.4293   -1.7541   -1.2223
H                     2.3485    0.5178   -0.9514

