%nproc=32
%mem=180GB
%chk=G4.Frag_1054.chk
#P G4

Frag_1054

0 1
O                    -0.0976    1.2613    0.2827
C                    -0.057    -0.1396    0.3786
O                    -0.7633   -0.729    -0.6831
O                     1.2723   -0.5881    0.3807
H                     0.2353    1.5001   -0.6216
H                    -0.5222   -0.4411    1.3428
H                    -1.7144   -0.4715   -0.5625
H                     1.6467   -0.392    -0.5176

