%nproc=32
%mem=180GB
%chk=G4.Frag_1089.chk
#P G4

Frag_1089

0 1
C                    -0.80739  -0.96443   1.11669
N                    -0.67741  -0.26436  -0.14735
C                    -1.60007   0.86273  -0.2304
C                     0.69383   0.0383   -0.5799
N                     1.34083   1.04645   0.26052
N                     1.54988  -1.13538  -0.6662
O                     0.58571   0.54193  -1.89395
H                    -0.21756  -1.88403   1.12086
H                    -0.51817  -0.36606   2.00431
H                    -1.85439  -1.25091   1.25609
H                    -2.62628   0.49067  -0.1403
H                    -1.48831   1.34766  -1.1985
H                    -1.44991   1.61781   0.56306
H                     0.92163   1.0985    1.1806
H                     2.32329   0.81854   0.36414
H                     1.15809  -1.77529  -1.35099
H                     1.60402  -1.62073   0.2225
H                     1.06222   1.39871  -1.88108

