%nproc=32
%mem=180GB
%chk=G4.Frag_1146.chk
#P G4

Frag_1146

0 1
C                    -0.5616   -1.1941   -0.1283
C                     0.0772    0.1897   -0.2727
N                    -0.7891    1.2108    0.3165
C                     1.426     0.2136    0.3931
O                     1.5298    0.0439    1.5981
H                    -0.7489   -1.4293    0.9417
H                    -1.5286   -1.2247   -0.674
H                     0.1055   -1.9714   -0.5591
H                     0.2143    0.4029   -1.3571
H                    -0.3503    2.1468    0.1542
H                    -1.6918    1.2215   -0.2123
H                     2.3174    0.3903   -0.2

