%nproc=32
%mem=180GB
%chk=G4.Frag_452.chk
#P G4

Frag_452

0 1
C                     2.17495  -0.44459   0.11847
C                     0.74363  -0.30766   0.62407
O                     0.46887  -0.55935   1.77455
C                    -0.3462    0.15104  -0.3483
C                    -1.42033  -0.93785  -0.46542
C                    -0.95209   1.47042   0.16305
H                     2.35078  -1.64153   0.07299
H                     2.98499   0.02614   0.92262
H                     2.29131   0.07675  -0.93475
H                     0.1018    0.31883  -1.33204
H                    -1.01343  -1.86836  -0.87596
H                    -1.83772  -1.16015   0.5194
H                    -2.23038  -0.60464  -1.1165
H                    -1.35436   1.32606   1.16885
H                    -1.76179   1.80535  -0.49759
H                    -0.19991   2.26432   0.20686

