%nproc=32
%mem=180MB
%chk=G4.Frag_516.chk
#P G4

Frag_516

0 1
C                     1.6953    0.1507   -0.1274
N                     0.4371    0.4308   -0.0319
N                    -0.4371   -0.4308    0.6425
C                    -1.6953   -0.1507    0.738
H                     2.0968   -0.7545    0.3117
H                     2.3576    0.8261   -0.6514
H                    -2.3576   -0.8261    1.2619
H                    -2.0968    0.7545    0.2989

