%nproc=32
%mem=180MB
%chk=G4.Frag_1022.chk
#P G4

Frag_1022

0 1
C                    -1.4193   -0.015    -1.105
C                    -0.5856    0.3594   -0.1279
N                    -1.0648    1.237     0.8995
C                     0.8178   -0.2276   -0.0292
N                     0.7731   -1.4919    0.7103
O                     1.6657    0.6639    0.6543
O                     1.3356   -0.4613   -1.3183
H                    -2.4288    0.3737   -1.1494
H                    -1.1147   -0.7205   -1.8674
H                    -0.4722    1.472     1.726
H                    -2.0265    1.6432    0.8574
H                     0.3621   -1.3196    1.6573
H                     0.1402   -2.159     0.2106
H                     1.7653    1.4707    0.083
H                     2.2523   -0.8249   -1.2014

