%nproc=32
%mem=180GB
%chk=G4.Frag_935.chk
#P G4

Frag_935

0 1
C                     0.7448    0.078    -1.5171
C                     0.5502    0.0109   -0.1878
C                     1.7761   -0.0276    0.6964
C                    -0.8754    0.0129    0.3982
N                    -1.5       1.3228    0.1856
N                    -1.7094   -1.0255   -0.2289
O                    -0.8458   -0.2225    1.7855
H                     1.7487    0.085    -1.9322
H                    -0.0839    0.1376   -2.2135
H                     2.4524    0.8152    0.4381
H                     1.5338    0.0668    1.7731
H                     2.318    -0.984     0.5391
H                    -1.5395    1.5403   -0.8367
H                    -0.9056    2.0579    0.6346
H                    -1.1866   -1.932    -0.2416
H                    -1.9247   -0.7747   -1.2205
H                    -0.553    -1.1612    1.9278

