%nproc=32
%mem=180MB
%chk=G4.Frag_556.chk
#P G4

Frag_556

0 1
C                    -0.9133    1.3436   -0.2618
C                    -0.9414    0.0579    0.0945
O                    -2.1785   -0.5121    0.3961
C                     0.2913   -0.7667    0.1763
C                     1.6497   -0.2116   -0.1354
O                     0.1998   -1.976     0.5191
H                    -1.8335    1.912    -0.3099
H                     0.0075    1.8537   -0.5098
H                    -2.2699   -1.482     0.6732
H                     1.678     0.149    -1.185
H                     1.882     0.6266    0.5545
H                     2.4283   -0.9943   -0.0118

