%nproc=32
%mem=180GB
%chk=G4.Frag_753.chk
#P G4

Frag_753

0 1
C                     1.4539    0.3161    0.0058
C                     0.2226   -0.4203    0.4434
O                     0.2464   -1.0529    1.488
C                    -1.0376   -0.3997   -0.3777
O                    -2.08      0.186     0.3528
H                     2.2886   -0.4034   -0.1283
H                     1.7364    1.0591    0.7807
H                     1.2879    0.8504   -0.9529
H                    -0.8895    0.1445   -1.3375
H                    -1.3192   -1.4439   -0.6284
H                    -1.9094    1.1643    0.3542

