%nproc=32
%mem=180GB
%chk=G4.Frag_667.chk
#P G4

Frag_667

0 1
C                    -1.83173  -0.23154   0.13168
C                    -0.61007   0.64604   0.19234
C                     0.64225   0.17989   0.00129
N                     1.77188   0.9786   -0.01407
N                     0.91551  -1.14996  -0.22901
H                    -1.97593  -0.72361  -0.83863
H                    -1.82629  -1.03195   0.89395
H                    -2.73521   0.35684   0.31442
H                    -0.73552   1.70339   0.42126
H                     2.6907    0.60993   0.25536
H                     1.6804    1.9587    0.40789
H                     1.84826  -1.48513  -0.65818
H                     0.16584  -1.81099  -0.44628

