%nproc=32
%mem=180GB
%chk=G4.Frag_463.chk
#P G4

Frag_463

0 1
C                    -0.28043  -1.6259    0.14489
C                     0.44946  -0.31507   0.1398
C                     1.91207  -0.19849   0.39944
N                    -0.18155   0.81942  -0.1281
C                    -1.63212   0.77149  -0.41362
N                     0.46355   1.98114  -0.16688
H                     0.4249   -2.42616   0.26224
H                    -0.6508   -1.85216  -0.76316
H                    -1.17383  -1.70693   0.95465
H                     2.11502   0.45919   1.23782
H                     2.35692  -1.17485   0.62737
H                     2.41398   0.28643  -0.45881
H                    -2.33347   0.50721   0.30814
H                    -1.66753   0.00014  -1.42446
H                    -1.98229   1.78436  -0.34257
H                    -0.23388   2.69018  -0.39187

