%nproc=32
%mem=180GB
%chk=G4.Frag_499.chk
#P G4

Frag_499

0 1
C                    -1.5771   -0.2703    1.2599
C                    -0.736    -0.3902   -0.0296
C                    -1.3413    0.5867   -1.0728
O                    -0.8962   -1.7177   -0.4823
C                     0.799    -0.1127    0.2666
C                     1.055     1.3417    0.7186
C                     1.6933   -0.3789   -0.9701
O                     1.2375   -0.9477    1.3147
H                    -2.6228   -0.5918    1.0626
H                    -1.6164    0.7739    1.6326
H                    -1.1753   -0.9241    2.0623
H                    -0.7784    0.5668   -2.0273
H                    -2.3881    0.2921   -1.3021
H                    -1.3641    1.6287   -0.6912
H                    -0.6599   -1.7612   -1.4452
H                     0.8044    2.0691   -0.0812
H                     0.4809    1.5906    1.6333
H                     2.1297    1.4784    0.9674
H                     2.7622   -0.2287   -0.7051
H                     1.5934   -1.4249   -1.3261
H                     1.455     0.3115   -1.8048
H                     1.1451   -1.8914    1.0197

