%nproc=32
%mem=180GB
%chk=G4.Frag_806.chk
#P G4

Frag_806

0 1
C                    -0.8038    0.0824   -1.0594
C                    -0.7977    0.1403    0.2779
O                    -1.9912    0.362     0.9635
O                     0.3757   -0.0148    1.0329
C                     1.671    -0.2468    0.4859
H                    -1.7284    0.2066   -1.6083
H                     0.0991   -0.0876   -1.629
H                    -2.8747    0.4825    0.481
H                     1.6784   -1.1965   -0.0896
H                     1.9668    0.6001   -0.1687
H                     2.4047   -0.3281    1.3138

