%nproc=32
%mem=180GB
%chk=G4.Frag_610.chk
#P G4

Frag_610

0 1
C                     1.9581    0.0896    0.1743
N                     1.0647    0.3398   -0.7188
C                    -0.3435    0.0289   -0.5505
C                    -0.9635    0.899     0.5478
N                    -0.5199   -1.3909   -0.2409
H                     2.9936    0.3489   -0.0158
H                     1.6972   -0.3822    1.1173
H                    -0.8631    0.2606   -1.5071
H                    -0.5234    0.6569    1.5382
H                    -0.7868    1.973     0.3259
H                    -2.0597    0.726     0.5947
H                    -0.109    -1.9473   -1.0257
H                    -1.5445   -1.6022   -0.2396

