%nproc=32
%mem=180GB
%chk=G4.Frag_951.chk
#P G4

Frag_951

0 1
C                    -1.56917  -0.3307   -0.22276
C                    -0.34327   0.53748  -0.11582
C                     0.89755   0.04917  -0.07718
O                     2.05447   0.76439   0.0253
O                     1.16583  -1.27302  -0.14586
H                    -1.78634  -1.2505    0.46936
H                    -1.44254  -0.71254  -1.28419
H                    -2.47403   0.28245   0.05874
H                    -0.46379   1.61254  -0.09811
H                     1.83801   1.7007    0.11327
H                     2.12328  -1.37988  -0.01794

