%nproc=32
%mem=180MB
%chk=G4.Frag_911.chk
#P G4

Frag_911

0 1
C                    -1.6125   -0.9421   -0.1587
C                    -0.5544    0.1146    0.2034
C                    -0.4251    1.1055   -0.9762
O                    -1.0226    0.7996    1.342
C                     0.7923   -0.5992    0.5441
N                     1.8328    0.3509    0.9558
O                     1.2447   -1.4147   -0.5122
H                    -1.7386   -1.6667    0.6745
H                    -2.5958   -0.4574   -0.3422
H                    -1.3222   -1.5013   -1.0741
H                    -0.1266    0.585    -1.9103
H                    -1.4007    1.6049   -1.1601
H                     0.3168    1.9002   -0.7549
H                    -0.393     1.5417    1.5389
H                     0.5955   -1.2692    1.4109
H                     2.1913    0.871     0.1232
H                     2.64     -0.1971    1.3327
H                     1.5781   -0.8259   -1.2367

