%nproc=32
%mem=180MB
%chk=G4.Frag_587.chk
#P G4

Frag_587

0 1
C                    -1.4188    1.2591    0.0316
C                    -0.4104    0.2002   -0.4513
C                    -1.0318   -1.1989   -0.2112
O                    -0.2228    0.413    -1.832
C                     0.9478    0.4073    0.3044
N                     2.0424   -0.4182   -0.2222
N                     0.7995    0.1768    1.7444
H                    -1.0226    2.2825   -0.1432
H                    -1.6334    1.1431    1.1158
H                    -2.3756    1.1652   -0.5262
H                    -1.2698   -1.3556    0.862
H                    -1.9774   -1.2962   -0.7868
H                    -0.3576   -2.0114   -0.5489
H                     0.2139   -0.39     -2.2191
H                     1.2454    1.4721    0.1637
H                     2.2682   -0.1207   -1.1985
H                     1.7704   -1.4257   -0.2369
H                     0.7815   -0.852     1.9311
H                     1.6514    0.5494    2.2235

