%nproc=32
%mem=180MB
%chk=G4.Frag_1047.chk
#P G4

Frag_1047

0 1
C                     0.91     -1.4441    0.9814
C                     0.7112   -0.4972    0.047
C                     1.7818   -0.3078   -1.0033
C                    -0.5244    0.4075    0.1144
N                    -0.7599    1.0519   -1.1867
N                    -1.7072   -0.3834    0.4951
N                    -0.2796    1.4442    1.1234
H                     0.1999   -1.6001    1.7875
H                     1.7945   -2.0742    0.9568
H                     2.7758   -0.2107   -0.5164
H                     1.6242    0.6066   -1.6095
H                     1.7972   -1.187    -1.6813
H                    -1.6068    1.6631   -1.1254
H                    -0.9693    0.3171   -1.9019
H                    -2.5469    0.2397    0.5268
H                    -1.8897   -1.1059   -0.2396
H                    -1.1048    2.0859    1.1662
H                    -0.206     0.9946    2.0656

