%nproc=32
%mem=180GB
%chk=G4.Frag_540.chk
#P G4

Frag_540

0 1
C                     2.20656  -0.61362   0.22101
C                     0.96315  -0.8836   -0.32902
C                    -0.26063   0.00539  -0.05938
C                    -0.02148   1.35209  -0.77138
C                    -1.49315  -0.69598  -0.62036
C                    -0.53404   0.25338   1.44184
H                     3.02086  -1.30567  -0.05596
H                     2.47074   0.30488   0.97802
H                     0.77642  -1.8261   -1.08767
H                    -0.89856   1.98018  -0.63455
H                     0.15733   1.21044  -1.84434
H                     0.8424    1.88584  -0.38412
H                    -1.70183  -1.66288  -0.1421
H                    -2.39343  -0.08591  -0.45702
H                    -1.33073  -0.8765   -1.69785
H                    -0.69555  -0.688     1.97082
H                     0.31894   0.7596    1.88356
H                    -1.42711   0.88637   1.6085

