%nproc=32
%mem=180MB
%chk=G4.Frag_768.chk
#P G4

Frag_768

0 1
C                    -0.5085   -0.8728    0.5565
C                     0.1448    0.4643    0.1912
N                     1.2967    0.2686   -0.6893
C                    -0.8317    1.3445   -0.4653
N                    -1.6007    2.0379   -0.9822
H                     0.2291   -1.5283    1.0664
H                    -0.8799   -1.3919   -0.3535
H                    -1.3618   -0.7056    1.2487
H                     0.4845    0.9639    1.1243
H                     2.0198   -0.285    -0.1744
H                     1.0077   -0.2955   -1.5225

