%nproc=32
%mem=180MB
%chk=G4.Frag_994.chk
#P G4

Frag_994

0 1
C                    -0.981    -1.0949   -0.0769
C                    -0.3223    0.2384   -0.4378
N                    -0.9975    1.3296    0.2676
C                     1.1505    0.2137   -0.1102
N                     1.9419   -0.5725   -0.7451
H                    -0.5256   -1.9218   -0.6627
H                    -2.0655   -1.0563   -0.3145
H                    -0.8593   -1.3098    1.0067
H                    -0.4392    0.4014   -1.5322
H                    -0.5798    2.2375   -0.0422
H                    -0.8247    1.2396    1.2961
H                     1.5525    0.8799    0.649
H                     2.9499   -0.585    -0.5328

