%nproc=32
%mem=180GB
%chk=G4.Frag_1077.chk
#P G4

Frag_1077

0 1
N                     1.2648   -0.3712   -0.0718
C                    -0.0045   -0.3586   -0.0981
N                    -1.2738   -0.346    -0.1244
H                     1.7975    0.5201   -0.174
H                    -1.784     0.5557   -0.2479

