%nproc=32
%mem=180MB
%chk=G4.Frag_1086.chk
#P G4

Frag_1086

0 1
C                     2.0639   -0.2041    0.1285
C                     0.8703   -0.0351    0.141
C                    -0.5541    0.167     0.1558
N                    -1.3603   -0.8412    0.2557
O                    -1.0613    1.4587    0.0615
H                     3.1117   -0.3525    0.1176
H                    -1.0102   -1.8233    0.3282
H                    -2.0599    1.6304    0.0694

