%nproc=32
%mem=180MB
%chk=G4.Frag_1105.chk
#P G4

Frag_1105

0 1
C                    -0.4956    0.0021    0.0021
C                     0.9675   -0.0041   -0.0041
N                     2.1247   -0.009    -0.0091
H                    -0.8718   -0.7148   -0.7564
H                    -0.8625   -0.2954    1.006
H                    -0.8623    1.0211   -0.2385

