%nproc=32
%mem=180GB
%chk=G4.Frag_703.chk
#P G4

Frag_703

0 1
C                    -0.8461    0.6065   -1.3387
C                    -0.7207    0.1886   -0.0725
N                    -1.8937    0.107     0.7473
N                     0.5621   -0.1828    0.4818
C                     1.8123   -0.0721   -0.2703
O                     0.6263   -0.6233    1.7629
H                    -1.8166    0.879    -1.7339
H                    -0.0002    0.6861   -2.0065
H                    -2.8344    0.3651    0.3728
H                    -1.8364   -0.2097    1.7399
H                     1.9743    0.9808   -0.5837
H                     1.7774   -0.7329   -1.1619
H                     2.6702   -0.3844    0.3623
H                     0.5255   -1.6079    1.7005

