%nproc=32
%mem=180GB
%chk=G4.Frag_568.chk
#P G4

Frag_568

0 1
C                    -1.596     0.0821    0.2401
C                    -0.148     0.1331   -0.1288
O                     0.4298    1.3459   -0.5022
N                     0.5525   -0.9599   -0.1257
N                     1.9117   -0.9914   -0.4738
H                    -1.8573    0.9651    0.8599
H                    -2.2119    0.0899   -0.683
H                    -1.8219   -0.8378    0.8209
H                    -0.1132    2.2009   -0.5228
H                     2.4295   -0.1281   -0.7527
H                     2.4247   -1.8998   -0.454

