%nproc=32
%mem=180GB
%chk=G4.Frag_788.chk
#P G4

Frag_788

0 1
C                     1.38017  -0.99487   0.35092
C                     0.442    -0.10992  -0.47856
C                     0.96684   1.32586  -0.58924
C                    -0.98565  -0.13316   0.09075
O                    -1.02403   0.47184   1.36388
O                    -1.85916   0.56772  -0.76517
O                    -1.44695  -1.4589    0.20068
H                     2.38153  -1.00552  -0.09013
H                     1.46598  -0.61094   1.37256
H                     1.0149   -2.02324   0.3983
H                     0.3534   -0.53332  -1.4865
H                     1.04377   1.787     0.40038
H                     1.9619    1.33231  -1.04435
H                     0.30517   1.94019  -1.20459
H                    -1.42548  -0.18021   1.94899
H                    -2.27825   1.23828  -0.21265
H                    -2.29615  -1.46903  -0.25528

