%nproc=32
%mem=180GB
%chk=G4.Frag_1097.chk
#P G4

Frag_1097

0 1
N                    -1.3794   -0.09703   0.14245
C                    -0.05102   0.16348   0.1573
O                     0.51361   1.05191   0.75989
O                     0.61663  -0.74926  -0.60307
O                     2.02458  -0.48326  -0.55189
H                    -1.99181   0.5876    0.54894
H                    -1.75612  -0.78078  -0.49112
H                     2.02352   0.30733   0.0375

