%nproc=32
%mem=180MB
%chk=G4.Frag_887.chk
#P G4

Frag_887

0 1
N                    -1.9412    0.233     0.1025
C                    -0.5845   -0.2977    0.0725
N                     0.3417    0.7611   -0.3359
N                     1.6581    0.2599   -0.367
H                    -1.9939    0.9432    0.8687
H                    -2.5828   -0.5472    0.3734
H                    -0.3107   -0.6791    1.0824
H                    -0.5418   -1.1368   -0.6565
H                     1.9402   -0.0594    0.5887
H                     2.2874    1.0391   -0.6629
H                     1.7276   -0.516    -1.0656

