%nproc=32
%mem=180GB
%chk=G4.Frag_936.chk
#P G4

Frag_936

0 1
C                     1.1265   -0.1305    0.401
C                     0.0556    0.0563   -0.6826
N                    -1.0073   -0.9458   -0.5717
N                    -0.5049    1.394    -0.6405
N                    -1.1448    1.8301    0.3393
H                     1.9121    0.6474    0.2937
H                     0.6853   -0.0571    1.4172
H                     1.603    -1.1279    0.2929
H                     0.5498   -0.0673   -1.671
H                    -1.3683   -0.9708    0.4095
H                    -0.5957   -1.8872   -0.7685
H                    -1.3114    1.2588    1.1808

