%nproc=32
%mem=180MB
%chk=G4.Frag_732.chk
#P G4

Frag_732

0 1
C                     1.8388    0.5811   -1.1037
N                     1.1565    0.5293    0.0028
O                     1.7899    0.8965    1.1706
C                    -0.2227   -0.0058    0.0443
C                    -0.1705   -1.5395   -0.0663
C                    -0.9103    0.3817    1.3729
N                    -1.0013    0.5338   -1.0808
H                     2.8593    0.9435   -1.1011
H                     1.4114    0.2596   -2.0457
H                    -1.1914   -1.9733    0.003
H                     0.4526   -1.9653    0.7494
H                     0.2698   -1.8432   -1.0398
H                    -1.9603    0.0181    1.3922
H                    -0.3758   -0.0636    2.2395
H                    -0.9207    1.4863    1.4928
H                    -1.0387    1.5766   -1.0009
H                    -1.9865    0.1842   -1.0292

