%nproc=32
%mem=180GB
%chk=G4.Frag_688.chk
#P G4

Frag_688

0 1
C                    -1.3994   -0.3098   -0.1531
C                     0.014     0.1893   -0.0935
N                     0.2895    1.4056   -0.4485
C                     1.0715   -0.6859    0.451
N                     2.3071   -0.3046    0.5374
H                    -1.9353    0.1409   -1.0154
H                    -1.419    -1.4137   -0.2739
H                    -1.9267   -0.0384    0.785
H                    -0.4436    2.0576   -0.8076
H                     0.8109   -1.6804    0.7893
H                     2.6309    0.6393    0.2293

