%nproc=32
%mem=180GB
%chk=G4.Frag_566.chk
#P G4

Frag_566

0 1
N                    -0.69753   1.11595   1.29805
C                    -0.35945   0.30481   0.37269
N                    -1.15828  -0.46192  -0.51036
C                     1.1329    0.15477   0.09993
O                     2.00469   0.72936   0.67898
O                     1.37284  -0.73224  -0.89902
H                    -1.71398   1.15202   1.40839
H                    -2.15741  -0.42906   0.0004
H                    -0.75862  -1.06413  -0.78175
H                     2.33494  -0.76946  -0.99733

