%nproc=32
%mem=180GB
%chk=G4.Frag_945.chk
#P G4

Frag_945

0 1
C                    -1.5215   -0.6681   -0.9608
C                    -0.902    -0.0509    0.3164
N                    -1.6141    1.2084    0.5877
N                    -1.1948   -0.9632    1.4338
C                     0.6661    0.202     0.1883
C                     1.4502   -1.1116   -0.0625
C                     1.0062    1.1881   -0.9583
O                     1.1181    0.7623    1.4025
H                    -2.612    -0.8191   -0.8079
H                    -1.4051   -0.0027   -1.8397
H                    -1.0852   -1.6601   -1.194
H                    -1.1751    1.7114    1.3923
H                    -1.5902    1.8405   -0.2443
H                    -0.7218   -0.6365    2.307
H                    -0.8619   -1.9317    1.2253
H                     1.3242   -1.8246    0.777
H                     2.5388   -0.9015   -0.1403
H                     1.1459   -1.5974   -1.0114
H                     2.1046    1.3475   -1.0164
H                     0.6833    0.799    -1.9449
H                     0.5503    2.1836   -0.7844
H                     2.0961    0.9245    1.3344

