%nproc=32
%mem=180GB
%chk=G4.Frag_965.chk
#P G4

Frag_965

0 1
C                     1.8321   -0.1125    0.0686
O                     0.6407    0.522     0.48
C                    -0.4494    0.0767   -0.3092
N                    -0.9099   -1.229     0.1661
N                    -1.5391    1.0481   -0.2189
H                     1.7458   -1.2205    0.1227
H                     2.1167    0.2054   -0.9586
H                     2.6499    0.1936    0.7527
H                    -0.1688   -0.0127   -1.3867
H                    -1.7408   -1.5136   -0.402
H                    -1.228    -1.1344    1.1582
H                    -1.1998    1.953    -0.6189
H                    -1.7495    1.224     0.7908

