%nproc=32
%mem=180GB
%chk=G4.Frag_835.chk
#P G4

Frag_835

0 1
C                    -1.4413   -0.8582    0.7371
C                    -0.6352    0.052    -0.2259
C                    -1.2947    1.4533   -0.2142
C                    -0.8142   -0.5238   -1.6559
C                     0.9091    0.1551    0.1757
C                     1.5633   -1.2339    0.3817
N                     1.6465    0.8679   -0.8833
N                     1.0939    0.9027    1.4325
H                    -2.5172   -0.8631    0.4563
H                    -1.386    -0.5103    1.7873
H                    -1.0918   -1.9104    0.6869
H                    -1.3718    1.8546    0.8184
H                    -2.3286    1.4088   -0.6209
H                    -0.7146    2.1697   -0.8341
H                    -0.3727    0.1464   -2.423
H                    -1.893    -0.6277   -1.9046
H                    -0.3606   -1.5303   -1.7537
H                     1.465    -1.8774   -0.5149
H                     1.1265   -1.7595    1.256
H                     2.6487   -1.1116    0.5864
H                     1.8076    0.2366   -1.7017
H                     2.5975    1.1259   -0.53
H                     0.8649    1.914     1.3004
H                     0.4988    0.5192    2.1988

