%nproc=32
%mem=180MB
%chk=G4.Frag_1127.chk
#P G4

Frag_1127

0 1
C                    -0.9722   -0.695    -0.1711
C                    -0.1181    0.4147    0.4486
O                    -0.7332    1.663     0.2653
N                     1.2054    0.4299   -0.1347
N                     2.0071   -0.4997    0.0747
H                    -1.0422   -0.5619   -1.2719
H                    -1.9951   -0.6684    0.2607
H                    -0.5248   -1.6886    0.0442
H                    -0.0322    0.231     1.5421
H                    -0.7404    1.8498   -0.7104
H                     2.9455   -0.4749   -0.3476

