%nproc=32
%mem=180MB
%chk=G4.Frag_724.chk
#P G4

Frag_724

0 1
C                     2.0532   -0.5708    0.4908
C                     1.0761    0.3343    0.365
C                    -0.3174   -0.0382   -0.1177
C                    -1.2364    1.1959   -0.0448
N                    -0.2666   -0.5029   -1.5097
N                    -0.8579   -1.1091    0.7295
H                     3.0333   -0.2654    0.8424
H                     1.8854   -1.6165    0.2532
H                     1.296     1.3655    0.6297
H                    -1.3116    1.5676    1.
H                    -0.8403    2.0151   -0.6832
H                    -2.2566    0.9385   -0.4019
H                     0.2797   -1.3935   -1.5627
H                     0.2354    0.2044   -2.096
H                    -1.8157   -1.3636    0.3933
H                    -0.9564   -0.7612    1.7119

