%nproc=32
%mem=180GB
%chk=G4.Frag_893.chk
#P G4

Frag_893

0 1
C                     1.3398    0.5403    0.8461
C                     0.6397    0.1243   -0.4594
N                     1.1955   -1.1304   -0.9755
C                    -0.8976    0.0103   -0.2985
N                    -1.4682    1.3227    0.0184
N                    -1.2456   -0.9469    0.7565
H                     0.952     1.5193    1.1986
H                     2.4316    0.6449    0.6716
H                     1.1804   -0.2177    1.642
H                     0.8406    0.9181   -1.2142
H                     1.2475   -1.8378   -0.2068
H                     2.1778   -0.9534   -1.289
H                    -1.3281   -0.3416   -1.2659
H                    -2.5097    1.2318    0.0511
H                    -1.2658    1.9725   -0.7761
H                    -2.2846   -0.9476    0.8761
H                    -1.0053   -1.9088    0.4251

