%nproc=32
%mem=180MB
%chk=G4.Frag_774.chk
#P G4

Frag_774

0 1
C                    -1.2463   -0.4051   -0.5936
N                    -0.0583    0.2167   -0.0275
O                    -0.1127    1.4924    0.4298
N                     1.1447   -0.5035    0.0155
N                     2.1997    0.0196    0.4917
H                    -1.5068   -1.3118   -0.0086
H                    -1.0509   -0.6914   -1.6482
H                    -2.1023    0.3018   -0.5641
H                    -0.3547    1.4093    1.3876
H                     3.0875   -0.5278    0.5174

