%nproc=32
%mem=180GB
%chk=G4.Frag_504.chk
#P G4

Frag_504

0 1
C                     1.8092    0.8644    0.0462
C                     0.6928   -0.1862    0.2697
C                     0.9671   -1.371    -0.6812
O                     0.7783   -0.6921    1.5841
C                    -0.7293    0.4577    0.0297
C                    -1.8795   -0.5466    0.3059
N                    -0.8338    0.9413   -1.3552
O                    -0.8855    1.5747    0.8793
H                     2.8042    0.423     0.2702
H                     1.6712    1.7424    0.7122
H                     1.8141    1.2218   -1.0058
H                     0.969    -1.0537   -1.7447
H                     0.2223   -2.1805   -0.5419
H                     1.9648   -1.8091   -0.4617
H                     0.8629    0.0688    2.2155
H                    -1.9009   -1.3626   -0.4455
H                    -2.8567   -0.0204    0.257
H                    -1.7818   -0.9967    1.3164
H                    -0.9623    0.1391   -2.0134
H                    -1.6932    1.5319   -1.4437
H                    -1.0329    1.2536    1.8069

