%nproc=32
%mem=180MB
%chk=G4.Frag_940.chk
#P G4

Frag_940

0 1
C                    -0.8965   -1.3508    0.4442
C                    -0.5811    0.0473   -0.1454
C                    -1.0827    1.1165    0.8543
N                    -1.332     0.2143   -1.401
C                     0.9596    0.2415   -0.4476
C                     1.8574    0.0814    0.8004
O                     1.1753    1.547    -0.9299
O                     1.3849   -0.6695   -1.4407
H                    -0.414    -1.4962    1.4323
H                    -1.9917   -1.4646    0.5954
H                    -0.5739   -2.1618   -0.2403
H                    -2.1832    1.0375    0.9881
H                    -0.6218    0.9863    1.8552
H                    -0.8615    2.1405    0.4862
H                    -1.0778   -0.5497   -2.069
H                    -2.3584    0.1178   -1.219
H                     2.9207    0.2162    0.5077
H                     1.7644   -0.9275    1.2507
H                     1.627     0.8493    1.5666
H                     0.8181    1.5944   -1.8552
H                     1.4674   -1.57     -1.033

