%nproc=32
%mem=180MB
%chk=G4.Frag_943.chk
#P G4

Frag_943

0 1
C                    -1.3412   -0.413     0.3367
C                     0.0655   -0.0032   -0.1294
N                     0.3399    1.3846    0.2542
O                     0.1495   -0.1114   -1.53
N                     1.0437   -0.877     0.494
N                     2.2657   -0.7776    0.2598
H                    -1.4304   -0.3106    1.4395
H                    -1.5445   -1.4711    0.0652
H                    -2.1091    0.2285   -0.1459
H                    -0.377     2.0088   -0.1833
H                     0.2477    1.4814    1.2922
H                     0.0556   -1.0726   -1.7627
H                     2.6346   -0.0668   -0.3903

