%nproc=32
%mem=180GB
%chk=G4.Frag_869.chk
#P G4

Frag_869

0 1
C                    -1.0006   -1.1186   -0.329
C                    -0.095    -0.0937    0.3593
C                    -0.7411    1.2943    0.3688
N                     1.2087   -0.042    -0.3043
N                     2.3687   -0.3727    0.4082
O                     1.2963    0.2956   -1.5042
H                    -1.9684   -1.1975    0.2107
H                    -0.5131   -2.1166   -0.3219
H                    -1.1991   -0.8241   -1.3818
H                     0.0433   -0.4142    1.4162
H                    -0.9335    1.6461   -0.6674
H                    -0.0684    2.0194    0.8742
H                    -1.7037    1.2645    0.9227
H                     3.3058   -0.3406   -0.0514

