%nproc=32
%mem=180MB
%chk=G4.Frag_975.chk
#P G4

Frag_975

0 1
N                    -0.6966   -0.1007    0.2045
C                     0.6504    0.1419   -0.1903
O                     1.4224   -0.8222   -0.4329
H                    -1.0552   -1.0771    0.2961
H                    -1.334     0.7011    0.405
H                     1.013     1.157    -0.2825

