%nproc=32
%mem=180GB
%chk=G4.Frag_1121.chk
#P G4

Frag_1121

0 1
C                    -1.3916    0.3225    0.8312
C                    -0.4002    0.2941   -0.062
O                    -0.5236    0.982    -1.2699
C                     0.8459   -0.5141    0.2001
O                     1.944     0.0416   -0.4774
O                     0.6525   -1.8384   -0.22
H                    -1.3174   -0.2225    1.7641
H                    -2.2922    0.8906    0.6369
H                    -1.3482    1.5273   -1.4946
H                     1.0641   -0.5312    1.2932
H                     2.189     0.8722    0.0089
H                     0.5778   -1.8242   -1.2105

