%nproc=32
%mem=180MB
%chk=G4.Frag_1098.chk
#P G4

Frag_1098

0 1
C                    -0.9099   -0.6857    0.9637
N                    -0.5053   -0.1619   -0.3593
C                    -1.2262    1.0756   -0.675
N                     0.8961    0.0738   -0.5038
N                     1.5074   -1.1027   -0.9887
N                     1.499     0.4172    0.7279
H                    -0.2883   -1.5581    1.2524
H                    -0.8359    0.0931    1.7546
H                    -1.9635   -1.0339    0.9163
H                    -2.3215    0.8881   -0.679
H                    -0.9969    1.875     0.0629
H                    -0.9415    1.4294   -1.6891
H                     1.1265   -1.2903   -1.9445
H                     1.2572   -1.9143   -0.3779
H                     2.5277    0.5151    0.5632
H                     1.1751    1.3794    0.9763

