%nproc=32
%mem=180GB
%chk=G4.Frag_786.chk
#P G4

Frag_786

0 1
C                     1.1172    1.2225   -0.4121
C                     0.5111    0.0976    0.0032
C                     1.3791   -1.0684    0.4148
C                    -1.015     0.0347    0.0588
O                    -1.4713    0.848     1.1124
O                    -1.4452   -1.2828    0.2943
O                    -1.5623    0.4875   -1.1593
H                     2.2005    1.2884   -0.4555
H                     0.5416    2.0911   -0.7169
H                     1.9556   -1.4313   -0.4623
H                     0.7933   -1.9161    0.8222
H                     2.091    -0.7447    1.2038
H                    -1.3697    1.7944    0.8296
H                    -2.4375   -1.2608    0.3279
H                    -1.2885   -0.1602   -1.861

