%nproc=32
%mem=180MB
%chk=G4.Frag_1064.chk
#P G4

Frag_1064

0 1
N                     1.3008    0.1688    0.0859
N                     0.3885   -0.1554   -0.9384
C                    -0.9383   -0.4231   -0.3751
O                    -1.5628    0.7795   -0.0141
H                     2.2325    0.3267   -0.3588
H                     1.0035    1.0498    0.5644
H                     1.3807   -0.6272    0.7603
H                    -1.5551   -0.9125   -1.1566
H                    -0.8781   -1.1324    0.4838
H                    -1.3717    0.9258    0.9487

