%nproc=32
%mem=180GB
%chk=G4.Frag_572.chk
#P G4

Frag_572

0 1
C                    -1.26864  -0.36845   0.09088
N                     0.01881   0.30053   0.12031
C                     1.21308  -0.5194   -0.15658
C                     0.10153   1.62223   0.03369
N                     0.17435   2.78445  -0.00576
H                    -1.46192  -0.99678   0.85239
H                    -2.05795   0.37736   0.34623
H                    -1.296    -1.00455  -0.9191
H                     1.32669  -1.11408  -1.1806
H                     2.0894    0.1251   -0.06733
H                     1.16076  -1.20629   0.59089

