%nproc=32
%mem=180MB
%chk=G4.Frag_962.chk
#P G4

Frag_962

0 1
C                     1.9333    0.2282   -0.143
C                     0.7692   -0.324    -0.4976
C                    -0.4866   -0.1176    0.3198
N                    -0.9507    1.2634    0.1875
N                    -1.5434   -1.0305   -0.12
H                     2.0113    0.8505    0.7432
H                     2.8217    0.0528   -0.741
H                     0.7405   -0.9578   -1.3798
H                    -0.2626   -0.3315    1.3903
H                    -0.2566    1.8943    0.6503
H                    -1.8369    1.3617    0.7347
H                    -1.2072   -2.015    -0.0068
H                    -1.732    -0.8746   -1.1377

