%nproc=32
%mem=180GB
%chk=G4.Frag_923.chk
#P G4

Frag_923

0 1
C                    -0.1933   -1.4057   -0.6065
C                    -0.1055   -0.0219    0.0581
C                    -1.0059    0.0036    1.312
C                    -0.6074    1.0555   -0.9257
N                     1.2969    0.2434    0.4292
N                     2.2061    0.7039   -0.5346
O                     1.739    -0.1416    1.5333
H                    -1.2407   -1.637    -0.898
H                     0.1611   -2.1937    0.0923
H                     0.4418   -1.4394   -1.5178
H                    -0.7152   -0.7979    2.0248
H                    -0.9177    0.9828    1.8301
H                    -2.0711   -0.1545    1.0361
H                    -0.0329    1.0253   -1.8763
H                    -0.4947    2.067    -0.4793
H                    -1.6797    0.896    -1.1714
H                     3.2191    0.8141   -0.3061

