%nproc=32
%mem=180MB
%chk=G4.Frag_584.chk
#P G4

Frag_584

0 1
C                    -1.5462   -0.2144   -0.4891
N                    -0.3448    0.5013   -0.9245
C                     0.8229    0.1238   -0.1115
O                     1.9173    0.9346   -0.4507
O                     1.1582   -1.2264   -0.3115
H                    -2.4103    0.1125   -1.105
H                    -1.7743    0.0205    0.5728
H                    -1.4232   -1.3126   -0.6133
H                    -0.1596    0.2516   -1.9243
H                     0.5937    0.2677    0.9699
H                     1.6888    1.8544   -0.1547
H                     1.4776   -1.313    -1.2476

