%nproc=32
%mem=180GB
%chk=G4.Frag_696.chk
#P G4

Frag_696

0 1
N                     1.04      0.8399   -0.4167
C                     0.6375   -0.2509    0.1501
C                    -0.7946   -0.5638    0.2771
N                    -1.7181    0.2289   -0.1678
H                     2.059     1.0514   -0.5012
H                     1.364    -0.9523    0.5413
H                    -1.0836   -1.4882    0.7589
H                    -1.5042    1.1347   -0.6418

