%nproc=32
%mem=180MB
%chk=G4.Frag_1021.chk
#P G4

Frag_1021

0 1
C                     1.2966   -0.3327   -0.156
C                     0.0344   -0.7517   -0.0984
N                    -1.0657    0.1638   -0.0568
O                    -0.8786    1.5059   -0.0866
H                     1.541     0.7213   -0.1736
H                     2.1034   -1.0534   -0.1862
H                    -0.1667   -1.8156   -0.0827
H                    -2.0389   -0.2136   -0.0253
H                    -0.8255    1.7761    0.8657

