%nproc=32
%mem=180MB
%chk=G4.Frag_859.chk
#P G4

Frag_859

0 1
C                     1.3328    0.5129    0.6963
C                     0.4769   -0.0384   -0.409
N                     1.0389   -0.4215   -1.5008
C                    -1.0302   -0.1314   -0.2616
O                    -1.4712    0.4664    0.9321
O                    -1.4315   -1.4752   -0.2885
H                     1.1445   -0.0523    1.6331
H                     1.0918    1.5842    0.8581
H                     2.4115    0.4269    0.4436
H                     0.4901   -0.8002   -2.287
H                    -1.5036    0.383    -1.1294
H                    -1.474     1.4474    0.7779
H                    -1.076    -1.9018    0.5352

