%nproc=32
%mem=180GB
%chk=G4.Frag_1060.chk
#P G4

Frag_1060

0 1
N                    -1.3948    0.0305    0.8527
C                    -0.6112   -0.4641   -0.2753
N                     0.798    -0.5822    0.1046
N                     1.3557    0.7091    0.1835
H                    -2.4041   -0.0145    0.5825
H                    -1.1721    1.0431    0.9887
H                    -0.732     0.2069   -1.1574
H                    -0.9909   -1.4703   -0.5598
H                     1.2976   -1.1142   -0.6484
H                     2.2534    0.6228    0.7115
H                     1.6004    1.0329   -0.7827

