%nproc=32
%mem=180MB
%chk=G4.Frag_878.chk
#P G4

Frag_878

0 1
C                    -1.8014   -0.698    -0.7936
C                    -0.9266   -0.1152    0.0439
N                    -1.4538    0.757     1.0585
N                     0.52     -0.2334   -0.1663
C                     0.9577    0.7967   -1.1252
C                     1.2865   -0.1042    1.0944
N                     0.8332   -1.4954   -0.7249
H                    -1.4764   -1.2991   -1.6324
H                    -2.8676   -0.5629   -0.662
H                    -2.4827    0.8193    1.2299
H                    -0.8461    1.3963    1.6131
H                     0.4454    0.667    -2.105
H                     2.0544    0.7298   -1.3041
H                     0.7267    1.8173   -0.7453
H                     0.8479   -0.7451    1.8914
H                     1.3179    0.9471    1.4544
H                     2.3432   -0.422     0.9455
H                     0.5218   -2.2553   -0.0723

