%nproc=32
%mem=180GB
%chk=G4.Frag_687.chk
#P G4

Frag_687

0 1
N                     1.72903  -0.18517  -0.12008
C                     0.63381   0.63998  -0.09067
O                     0.7198    1.84835  -0.23995
N                    -0.59415   0.0071    0.04503
N                    -1.76829   0.7771   -0.00993
N                    -0.77174  -1.36249   0.17738
H                     2.62646   0.25551   0.12656
H                     1.67162  -1.17829   0.46494
H                    -1.7752    1.2914   -0.88824
H                    -1.69432   1.49243   0.71672
H                    -0.49016  -1.89149  -0.59519
H                    -0.28697  -1.69443   1.06323

