%nproc=32
%mem=180GB
%chk=G4.Frag_524.chk
#P G4

Frag_524

0 1
N                     0.9252   -0.4974   -0.1665
C                    -0.2521    0.3589   -0.2592
O                    -1.4154   -0.4173   -0.1779
H                     1.7691    0.1089   -0.2834
H                     0.9686   -0.8844    0.8042
H                    -0.2457    0.8836   -1.2382
H                    -0.2375    1.1289    0.547
H                    -1.5122   -0.6813    0.7741

