%nproc=32
%mem=180GB
%chk=G4.Frag_829.chk
#P G4

Frag_829

0 1
C                    -1.35522   0.01883  -0.10543
C                     0.13189  -0.26134   0.18603
N                     0.94548   0.889    -0.22168
N                     2.17288   0.79584  -0.37358
H                    -1.65221   0.15544  -1.19508
H                    -1.59561   0.94953   0.42639
H                    -1.94849  -0.82966   0.23713
H                     0.36136  -1.22304  -0.32127
H                     0.46789  -0.368     1.30239
H                     2.47205  -0.12659  -0.22019

