%nproc=32
%mem=180GB
%chk=G4.Frag_531.chk
#P G4

Frag_531

0 1
C                    -0.84075   0.04225   0.00203
N                     0.37579  -0.78964   0.12789
N                     1.44716  -0.19779  -0.01628
N                     2.49793   0.23114  -0.11791
H                    -1.57578   0.07605   0.7638
H                    -0.61375   1.10603   0.1552
H                    -1.2907   -0.46804  -0.99983

