%nproc=32
%mem=180GB
%chk=G4.Frag_856.chk
#P G4

Frag_856

0 1
C                     0.9286   -1.3221   -0.6944
C                     0.5054    0.0398   -0.1052
C                     0.6705    0.0009    1.4319
N                     1.3795    1.0792   -0.6699
C                    -0.9658    0.3504   -0.5105
N                    -1.8828   -0.6955   -0.0455
O                    -1.362     1.5991    0.0016
H                     1.9896   -1.5417   -0.4472
H                     0.3052   -2.1466   -0.287
H                     0.8262   -1.3142   -1.801
H                     0.0808   -0.8278    1.8776
H                     0.3398    0.9575    1.8891
H                     1.7364   -0.1584    1.7024
H                     1.1597    2.0026   -0.2297
H                     2.3767    0.8679   -0.4319
H                    -1.0061    0.3879   -1.6257
H                    -2.7897   -0.5838   -0.5544
H                    -2.0914   -0.5423    0.9678
H                    -2.2007    1.847    -0.4681

