%nproc=32
%mem=180MB
%chk=G4.Frag_438.chk
#P G4

Frag_438

0 1
C                    -1.7497    0.3007   -0.0341
C                    -0.4707   -0.1171   -0.7521
C                     0.5547   -0.6225    0.2282
C                     1.8323    0.1233    0.4771
O                     0.3499   -1.6673    0.8275
H                    -2.4849    0.68     -0.7749
H                    -1.533     1.1081    0.6978
H                    -2.1974   -0.5663    0.4971
H                    -0.7028   -0.9201   -1.4844
H                    -0.0775    0.7537   -1.3191
H                     2.6961   -0.5199    0.208
H                     1.9009    0.3918    1.5521
H                     1.882     1.0556   -0.1233

