%nproc=32
%mem=180GB
%chk=G4.Frag_783.chk
#P G4

Frag_783

0 1
C                     1.822     0.5382    0.3495
C                     0.63     -0.3607    0.5287
N                     0.5999   -1.118     1.5706
C                    -0.5228   -0.3187   -0.4778
C                    -1.3014    0.9982   -0.3161
O                    -1.392    -1.4202   -0.3184
O                    -0.0015   -0.3542   -1.7823
H                     2.7426   -0.077     0.2679
H                     1.9135    1.2147    1.2252
H                     1.7308    1.1586   -0.5662
H                    -0.1808   -1.7526    1.7862
H                    -0.6532    1.8697   -0.5496
H                    -1.6778    1.1062    0.724
H                    -2.1684    1.0127   -1.0107
H                    -1.9712   -1.2561    0.4718
H                     0.4302   -1.2409   -1.9027

