%nproc=32
%mem=180MB
%chk=G4.Frag_1046.chk
#P G4

Frag_1046

0 1
C                    -1.0147    0.7153    1.3858
C                    -0.5434   -0.2375    0.2755
C                    -1.5169   -0.1759   -0.9132
C                     0.9212    0.0683   -0.1575
N                     1.3575   -0.8949   -1.1785
O                     0.9745    1.3654   -0.6987
O                     1.782     0.0035    0.9588
H                    -2.0473    0.4537    1.7017
H                    -1.0079    1.7686    1.0325
H                    -0.3576    0.6305    2.2769
H                    -0.5828   -1.2714    0.6857
H                    -2.545    -0.4319   -0.5788
H                    -1.5329    0.8411   -1.3599
H                    -1.2252   -0.9079   -1.6954
H                     1.3025   -1.8633   -0.7862
H                     2.3648   -0.7182   -1.3982
H                     1.9298    1.5756   -0.8694
H                     1.7412   -0.9209    1.319

