%nproc=32
%mem=180GB
%chk=G4.Frag_467.chk
#P G4

Frag_467

0 1
N                    -0.73795  -0.18116   0.0063
N                     0.21105   0.81633   0.3138
O                     1.41393   0.03869  -0.09763
H                    -1.65683   0.20042   0.23102
H                    -0.74427  -0.45747  -0.997
H                    -0.59869  -1.08181   0.5288
H                     2.11286   0.6649    0.63542

