%nproc=32
%mem=180MB
%chk=G4.Frag_794.chk
#P G4

Frag_794

0 1
C                     1.4701    1.4761   -0.6432
C                     0.9639    0.2576   -0.4054
N                     1.843    -0.8727   -0.5107
C                    -0.4702    0.0773    0.1083
C                    -1.0991   -1.2208   -0.4507
C                    -0.4305    0.0077    1.6442
N                    -1.3078    1.2194   -0.2938
H                     0.886     2.377    -0.511
H                     2.4983    1.5939   -0.9614
H                     1.5696   -1.8157   -0.161
H                     2.8117   -0.767    -0.8878
H                    -0.633    -2.1281   -0.0138
H                    -0.9924   -1.2582   -1.5562
H                    -2.1822   -1.2642   -0.206
H                    -0.0234    0.9537    2.0624
H                    -1.4517   -0.144     2.0556
H                     0.212    -0.8332    1.9844
H                    -2.2769    1.1016    0.0839
H                    -1.387     1.2397   -1.3376

