%nproc=32
%mem=180GB
%chk=G4.Frag_894.chk
#P G4

Frag_894

0 1
C                     0.3956   -1.2972    0.4071
C                    -0.1978   -0.0274   -0.2305
C                    -0.4484    1.0367    0.854
N                    -1.4791   -0.3711   -0.8552
N                     0.6998    0.493    -1.2531
N                     1.8666    0.8688   -1.0125
H                     0.6345   -2.0463   -0.378
H                     1.326    -1.0694    0.9688
H                    -0.3337   -1.7495    1.1133
H                     0.4814    1.2663    1.416
H                    -1.2107    0.6758    1.5777
H                    -0.8201    1.9765    0.3922
H                    -1.3111   -1.07     -1.6161
H                    -1.8719    0.481    -1.3191
H                     2.2687    0.8328   -0.0646

