%nproc=32
%mem=180MB
%chk=G4.Frag_733.chk
#P G4

Frag_733

0 1
C                     1.7372   -0.4286   -0.7144
C                     0.7261   -0.2727    0.438
C                     1.0837    0.9829    1.2568
C                    -0.7788   -0.3225   -0.0292
C                    -1.1173    0.7814   -1.061
N                    -1.678    -0.1667    1.1257
N                    -1.0498   -1.6394   -0.6269
H                     1.567    -1.3678   -1.2777
H                     1.6914    0.4349   -1.4099
H                     2.7694   -0.482    -0.3066
H                     0.8879   -1.1433    1.1129
H                     2.1494    0.9426    1.5686
H                     0.9364    1.9085    0.6639
H                     0.4841    1.0386    2.188
H                    -0.9354    1.7937   -0.6463
H                    -2.1919    0.7204   -1.3371
H                    -0.5263    0.664    -1.9925
H                    -1.3799   -0.8079    1.8969
H                    -1.6535    0.814     1.4877
H                    -2.0829   -1.7539   -0.7504
H                    -0.6388   -1.6963   -1.5866

