%nproc=32
%mem=180MB
%chk=G4.Frag_537.chk
#P G4

Frag_537

0 1
C                    -1.3061   -0.3738   -0.0789
C                     0.0747    0.1219    0.2088
O                     0.4147    1.4443   -0.07
N                     0.9446   -0.673     0.7453
O                     2.2178   -0.2398    1.0349
H                    -1.3206   -1.4831   -0.14
H                    -1.6598    0.0389   -1.0468
H                    -1.9917   -0.0449    0.7295
H                    -0.2586    2.0841   -0.4744
H                     2.8851   -0.8746    1.4543

