%nproc=32
%mem=180MB
%chk=G4.Frag_616.chk
#P G4

Frag_616

0 1
C                     1.9084   -0.1375    0.0634
C                     0.6805    0.7256    0.0104
O                     0.8029    1.8997   -0.3063
C                    -0.6981    0.156     0.3138
C                    -1.1294   -0.7972   -0.8106
O                    -1.6487    1.1896    0.451
O                    -0.6509   -0.5735    1.5137
H                     1.6589   -1.1765    0.3637
H                     2.6249    0.2815    0.8005
H                     2.3884   -0.1622   -0.9373
H                    -2.1554   -1.1746   -0.6131
H                    -0.4431   -1.6686   -0.8724
H                    -1.1274   -0.2735   -1.7909
H                    -1.7479    1.6381   -0.4301
H                    -0.4633    0.0733    2.2443

