%nproc=32
%mem=180MB
%chk=G4.Frag_930.chk
#P G4

Frag_930

0 1
C                     1.4337    0.025    -0.8608
N                     0.8765   -0.6184    0.118
N                    -0.3807   -0.2917    0.6653
N                    -1.1416    0.7957    0.2016
O                    -0.8618   -1.0372    1.6871
H                     0.9591    0.8737   -1.3332
H                     2.4025   -0.2917   -1.2217
H                    -1.3384    0.6412   -0.8131
H                    -0.5645    1.6608    0.306
H                    -1.3847   -1.7575    1.2509

