%nproc=32
%mem=180GB
%chk=G4.Frag_577.chk
#P G4

Frag_577

0 1
C                     1.8647   -0.1906    0.3511
C                     0.6959    0.2833   -0.0953
O                     0.6512    1.5443   -0.6926
C                    -0.573    -0.4757    0.0444
C                    -1.875     0.2616   -0.0143
N                    -0.5966   -1.7723    0.1103
H                     1.9428   -1.1379    0.8663
H                     2.7702    0.3909    0.2351
H                     1.4809    2.115    -0.8095
H                    -2.6947   -0.3555    0.4123
H                    -1.8076    1.2034    0.5704
H                    -2.1173    0.5033   -1.0702
H                     0.2585   -2.3697    0.092

