%nproc=32
%mem=180GB
%chk=G4.Frag_922.chk
#P G4

Frag_922

0 1
C                     1.7236    0.836     0.5276
C                     0.9058    0.1392   -0.2709
N                     1.4685   -0.8293   -1.1667
C                    -0.603     0.2738   -0.154
C                    -1.1012   -0.6918    0.9372
O                    -1.1851   -0.0538   -1.3945
O                    -0.9316    1.6039    0.1809
H                     2.7969    0.7071    0.4676
H                     1.3388    1.5343    1.2598
H                     2.5031   -0.9433   -1.2577
H                     0.8582   -1.4626   -1.7289
H                    -0.644    -0.4373    1.9175
H                    -2.2054   -0.6273    1.0403
H                    -0.8352   -1.739     0.6767
H                    -2.1704    0.0267   -1.3019
H                    -1.919     1.6634    0.2669

