%nproc=32
%mem=180MB
%chk=G4.Frag_755.chk
#P G4

Frag_755

0 1
C                     1.9605    0.029     0.5136
C                     0.7453    0.4248    0.2619
N                    -0.4412    0.811     0.0161
C                    -1.5753   -0.0794    0.2075
H                     2.7912    0.7053    0.3651
H                     2.1382   -0.976     0.8712
H                    -1.4718   -0.9749   -0.4423
H                    -1.638    -0.395     1.2711
H                    -2.5088    0.4552   -0.0639

