%nproc=32
%mem=180GB
%chk=G4.Frag_1031.chk
#P G4

Frag_1031

0 1
C                    -0.8877    0.0888   -1.2929
C                    -0.2415   -0.0981    0.0878
N                    -0.7307    0.9452    0.9996
N                    -0.5883   -1.4296    0.6096
C                     1.2621    0.0307   -0.0681
N                     2.006    -1.0269   -0.1409
O                     1.8557    1.288    -0.1835
H                    -0.5228   -0.6874   -2.
H                    -0.6434    1.0916   -1.7056
H                    -1.9931    0.0029   -1.2198
H                    -0.2943    0.8116    1.9414
H                    -1.764     0.8399    1.1267
H                    -1.6265   -1.5007    0.7193
H                    -0.1769   -1.5429    1.5652
H                     3.04     -0.9512   -0.2659
H                     1.3056    2.1382   -0.1728

