%nproc=32
%mem=180MB
%chk=G4.Frag_845.chk
#P G4

Frag_845

0 1
C                     2.1989   -0.354    -0.528
C                     1.1709    0.0509   -0.0459
C                    -0.0552    0.533     0.5285
C                    -1.3502   -0.1321    0.1966
O                    -0.0303    1.5183    1.312
H                     3.1014   -0.7095   -0.9512
H                    -1.3141   -1.1976    0.5066
H                    -1.5305   -0.0754   -0.8975
H                    -2.1909    0.3664    0.7245

