%nproc=32
%mem=180GB
%chk=G4.Frag_787.chk
#P G4

Frag_787

0 1
C                    -1.4638    0.8496    0.2907
C                    -0.4964   -0.3299    0.0958
N                    -0.759    -0.9736   -1.1955
C                     0.9835    0.1355    0.1831
O                     1.2055    0.7979    1.4048
O                     1.8456   -0.9791    0.1094
O                     1.2553    1.0285   -0.871
H                    -1.3008    1.3324    1.2772
H                    -2.5142    0.4898    0.2614
H                    -1.3264    1.606    -0.5111
H                    -0.6876   -1.0649    0.9112
H                    -1.7717   -1.2319   -1.2419
H                    -0.2446   -1.8833   -1.2239
H                     1.1101    0.1237    2.1278
H                     1.963    -1.2134   -0.8481
H                     2.2013    1.3129   -0.7701

