%nproc=32
%mem=180GB
%chk=G4.Frag_1019.chk
#P G4

Frag_1019

0 1
N                     1.2847   -0.0871    1.2382
C                     0.6625   -0.3828   -0.056
N                     1.4176    0.2628   -1.1355
C                    -0.8269    0.0811   -0.0632
N                    -0.9004    1.5254    0.1806
N                    -1.5895   -0.6141    0.9842
O                    -1.4134   -0.1937   -1.3146
H                     2.2141   -0.5654    1.2768
H                     1.467     0.9409    1.3051
H                     0.6892   -1.4865   -0.2123
H                     2.408    -0.0703   -1.0891
H                     1.046    -0.0782   -2.0515
H                    -1.9081    1.8055    0.212
H                    -0.4808    2.0315   -0.6332
H                    -1.2194   -0.3444    1.9246
H                    -1.4622   -1.6478    0.8843
H                    -1.3885   -1.177    -1.4508

