%nproc=32
%mem=180MB
%chk=G4.Frag_820.chk
#P G4

Frag_820

0 1
N                    -1.8316   -0.1438    0.0225
C                    -0.4709   -0.3292    0.4125
O                    -0.209    -0.7509    1.571
C                     0.6459    0.0353   -0.5322
O                     1.0266    1.3784   -0.3654
O                     1.7499   -0.8222   -0.3773
H                    -2.07      0.2356   -0.9206
H                    -2.6055   -0.3809    0.6821
H                     0.2757   -0.0853   -1.5719
H                     1.3255    1.4926    0.5748
H                     2.1634   -0.6296    0.5045

