%nproc=32
%mem=180GB
%chk=G4.Frag_459.chk
#P G4

Frag_459

0 1
C                     1.194    -0.6      -1.3141
C                     0.9694   -0.2822    0.1704
O                     1.266    -1.4377    0.9146
C                    -0.4726    0.2108    0.5068
C                    -0.8378    1.4737   -0.298
N                    -1.4559   -0.8536    0.246
O                    -0.5185    0.5656    1.8699
H                     2.2335   -0.9644   -1.458
H                     1.0722    0.3066   -1.9414
H                     0.5037   -1.3943   -1.6651
H                     1.6885    0.5306    0.435
H                     1.6621   -1.1409    1.7753
H                    -0.9556    1.2494   -1.3787
H                    -0.056     2.2532   -0.1734
H                    -1.8022    1.8884    0.0662
H                    -2.3849   -0.5532    0.6226
H                    -1.5822   -0.9816   -0.7839
H                    -0.5236   -0.2704    2.4059

