%nproc=32
%mem=180MB
%chk=G4.Frag_1124.chk
#P G4

Frag_1124

0 1
N                     1.5705   -0.5755   -0.6949
C                     0.876    -0.1872    0.312
C                    -0.5908    0.0894    0.163
O                    -1.2399   -1.0813   -0.2498
O                    -0.793     1.0988   -0.7912
H                     2.5781   -0.7651   -0.5945
H                     1.3515   -0.0552    1.2801
H                    -0.9985    0.4072    1.1525
H                    -2.213    -0.8871   -0.2197
H                    -0.5409    1.956    -0.3575

