%nproc=32
%mem=180GB
%chk=G4.Frag_1094.chk
#P G4

Frag_1094

0 1
C                    -1.5096   -0.0776   -0.1004
N                    -0.5911   -0.0879   -1.249
N                     0.7283    0.3367   -0.9319
C                     1.3683   -0.4425    0.146
O                     0.7414    1.6814   -0.6871
H                    -1.2367   -0.8553    0.6437
H                    -1.5515    0.9215    0.3776
H                    -2.5335   -0.3097   -0.4608
H                    -0.5378   -1.0632   -1.6253
H                     0.9343   -0.2072    1.1413
H                     2.4514   -0.2011    0.1753
H                     1.2658   -1.5303   -0.0537
H                     0.4706    1.835     0.2555

