%nproc=32
%mem=180GB
%chk=G4.Frag_758.chk
#P G4

Frag_758

0 1
C                     1.01592   0.89277  -0.73929
C                    -0.0668   -0.00332  -0.04287
C                     0.50766  -1.38126   0.2219
C                    -0.57727   0.63611   1.28579
C                    -1.23459  -0.19336  -1.11177
O                    -1.1237   -0.67492  -1.99493
H                     1.91739   0.9717   -0.09972
H                     0.59599   1.8865   -0.93563
H                     1.35307   0.48895  -1.70769
H                    -0.19237  -2.03874   0.72174
H                     0.78731  -1.88467  -0.72995
H                     1.36598  -1.24971   0.86864
H                     0.24316   0.78049   2.01066
H                    -1.35087   0.01114   1.77687
H                    -1.01052   1.61094   1.10232
H                    -2.23036   0.14738  -1.08097

