%nproc=32
%mem=180GB
%chk=G4.Frag_580.chk
#P G4

Frag_580

0 1
C                    -1.1213    0.0614    1.5451
C                    -0.5094   -0.0196    0.1253
C                    -1.0657   -1.2924   -0.558
C                    -1.0083    1.2107   -0.6722
C                     1.0716   -0.0692    0.223
C                     1.7689   -0.0912   -1.1564
O                     1.4608   -1.2544    0.8797
O                     1.5569    1.0348    0.9625
H                    -0.8771   -0.8433    2.1407
H                    -0.7486    0.9551    2.0894
H                    -2.2296    0.1346    1.4943
H                    -2.1773   -1.2948   -0.5349
H                    -0.7617   -1.3459   -1.6237
H                    -0.715    -2.2111   -0.0417
H                    -2.1196    1.2379   -0.6882
H                    -0.6735    1.1754   -1.7291
H                    -0.6626    2.1602   -0.2142
H                     2.8695   -0.1349   -1.0107
H                     1.552     0.8226   -1.7457
H                     1.478    -0.9856   -1.7437
H                     1.4184   -1.0992    1.8592
H                     1.4937    1.8488    0.3993

