%nproc=32
%mem=180GB
%chk=G4.Frag_527.chk
#P G4

Frag_527

0 1
C                     2.183    -0.4187    1.3584
C                     1.1093   -0.2091    0.8509
C                    -0.2012    0.0468    0.2318
C                    -0.0974    1.2956   -0.6587
C                    -0.6074   -1.1793   -0.6019
O                    -1.1348    0.2628    1.2608
H                     3.1252   -0.6027    1.8037
H                     0.1799    2.1825   -0.0486
H                    -1.0715    1.5035   -1.1512
H                     0.6715    1.1529   -1.4493
H                    -0.6977   -2.0758    0.0491
H                    -1.5888   -1.0067   -1.0936
H                     0.1481   -1.3869   -1.391
H                    -2.018     0.4351    0.8397

