%nproc=32
%mem=180MB
%chk=G4.Frag_1140.chk
#P G4

Frag_1140

0 1
N                    -1.2941    1.7351   -0.2927
C                    -0.6514    0.6381   -0.0553
N                    -1.3309   -0.4516    0.5735
N                     0.7295    0.5341   -0.4264
N                     1.4959   -0.62     -0.2036
H                    -0.8272    2.5497   -0.7504
H                    -2.3371   -0.3605    0.838
H                    -0.8456   -1.3515    0.7807
H                     1.0693   -1.4189   -0.7255
H                     1.531    -0.8133    0.823
H                     2.4606   -0.4412   -0.5613

