%nproc=32
%mem=180GB
%chk=G4.Frag_800.chk
#P G4

Frag_800

0 1
C                    -0.7757    0.913     1.1969
C                    -0.6901    0.1378    0.1108
N                    -1.864    -0.1211   -0.6671
C                     0.6429   -0.4277   -0.3408
N                     1.3433   -1.0577    0.7789
N                     1.4824    0.6211   -0.9232
H                    -1.7258    1.3301    1.5056
H                     0.1001    1.1421    1.7909
H                    -1.8112   -0.6986   -1.5353
H                    -2.7941    0.2638   -0.3873
H                     0.4637   -1.2011   -1.1221
H                     0.7706   -1.8692    1.1083
H                     2.2393   -1.4588    0.4176
H                     0.9679    1.0581   -1.7227
H                     1.6509    1.368    -0.2104

