%nproc=32
%mem=180MB
%chk=G4.Frag_899.chk
#P G4

Frag_899

0 1
C                    -1.1188   -0.7715    0.3722
C                     0.1373   -0.2287   -0.3171
C                     0.008     1.2786   -0.5597
C                     1.3639   -0.5249    0.5053
O                     2.4758   -0.2989    0.0545
H                    -2.0134   -0.5836   -0.2592
H                    -1.2678   -0.2833    1.3598
H                    -1.0272   -1.8685    0.5237
H                     0.2409   -0.7393   -1.2998
H                    -0.8888    1.491    -1.1801
H                     0.8995    1.6584   -1.1032
H                    -0.0845    1.8243    0.4043
H                     1.2749   -0.9536    1.4992

