%nproc=32
%mem=180GB
%chk=G4.Frag_563.chk
#P G4

Frag_563

0 1
C                    -2.13467   0.34783   0.04292
C                    -0.98475  -0.32306   0.17309
O                    -1.00717  -1.63417   0.52319
N                     0.29465   0.18875  -0.07611
C                     1.501    -0.59974   0.06004
N                     0.37419   1.52361  -0.46213
H                    -2.14443   1.3801   -0.33237
H                    -3.06021  -0.16549   0.29337
H                    -0.11958  -1.99548   1.07469
H                     2.35176   0.03712  -0.25693
H                     1.60765  -1.4352   -0.58581
H                     1.59471  -0.98815   1.12494
H                     0.81427   1.58745  -1.38308
H                     0.91249   2.07634   0.19919

