%nproc=32
%mem=180GB
%chk=G4.Frag_941.chk
#P G4

Frag_941

0 1
C                    -1.3202    0.0039   -0.5468
N                    -0.6498    0.9286    0.0752
O                    -1.2111    2.1779    0.1997
O                     0.6079    0.719     0.6223
C                     1.3068   -0.5225    0.5676
H                    -0.9315   -0.9964   -0.6761
H                    -2.2992    0.2225   -0.955
H                     1.4907   -0.81     -0.4889
H                     2.2841   -0.4111    1.0802
H                     0.7224   -1.312     1.0851

