%nproc=32
%mem=180MB
%chk=G4.Frag_586.chk
#P G4

Frag_586

0 1
N                     1.045    -0.1747   -0.315
C                    -0.2119    0.0245    0.4077
O                    -0.7386    1.2976    0.1344
O                    -1.1398   -0.9718    0.0622
H                     1.4339   -1.1041   -0.0342
H                     1.7257    0.5461    0.0182
H                    -0.02     -0.0442    1.5009
H                    -0.8434    1.3663   -0.8505
H                    -1.251    -0.9397   -0.9238

