%nproc=32
%mem=180MB
%chk=G4.Frag_816.chk
#P G4

Frag_816

0 1
C                     1.9121   -0.207     0.3379
N                     0.5202   -0.5949    0.165
N                    -0.5024    0.3501   -0.0174
C                    -1.8625   -0.1052   -0.2627
O                    -0.2284    1.5637   -0.1312
H                     2.2634    0.3422   -0.5604
H                     2.5321   -1.1168    0.4734
H                     2.0129    0.4394    1.2347
H                    -2.0578   -1.0414    0.302
H                    -2.       -0.2969   -1.3473
H                    -2.5897    0.6668    0.0682

