%nproc=32
%mem=180GB
%chk=G4.Frag_1023.chk
#P G4

Frag_1023

0 1
C                     1.3242    1.0824   -0.9626
C                     0.7091   -0.122    -0.2039
C                     1.5475   -0.3517    1.0786
N                     0.8217   -1.3249   -1.0476
C                    -0.8114    0.1445    0.1542
C                    -1.4478   -1.0909    0.844
N                    -1.5706    0.4502   -1.0721
N                    -0.9114    1.29      1.0758
H                     1.3825    1.9824   -0.3154
H                     0.7322    1.332    -1.868
H                     2.358     0.8436   -1.2933
H                     1.2532   -1.2938    1.5853
H                     1.4367    0.4916    1.7924
H                     2.6266   -0.4416    0.8277
H                     1.8309   -1.5631   -1.1913
H                     0.4346   -1.1319   -1.9994
H                    -2.5411   -0.9387    0.9714
H                    -1.0185   -1.2509    1.8546
H                    -1.3048   -2.0115    0.2403
H                    -1.6997   -0.4178   -1.6407
H                    -2.5316    0.7745   -0.8145
H                    -0.728     2.1764    0.5528
H                    -1.8924    1.3714    1.4315

