%nproc=32
%mem=180MB
%chk=G4.Frag_543.chk
#P G4

Frag_543

0 1
C                    -1.5987   -0.0303   -0.3918
C                    -0.2826   -0.182    -0.24
O                     0.3213   -1.305    -0.8057
C                     0.5183    0.8227    0.5016
O                     0.0545    1.9776    0.7005
O                     1.7832    0.5186    1.0009
H                    -2.124     0.8189    0.027
H                    -2.1719   -0.7679   -0.9391
H                     1.3237   -1.4402   -0.8102
H                     2.1761   -0.4124    0.9567

