%nproc=32
%mem=180MB
%chk=G4.Frag_546.chk
#P G4

Frag_546

0 1
C                     0.8149   -1.3445   -0.4406
N                     1.1724   -0.2001    0.0526
C                     0.2992    0.9128    0.2934
N                    -1.1259    0.7814    0.2672
O                     0.806     2.0346    0.5569
H                     1.5573   -2.1189   -0.5763
H                    -0.1995   -1.5465   -0.7528
H                    -1.7256    1.6265    0.396
H                    -1.599    -0.1453    0.2036

