%nproc=32
%mem=180MB
%chk=G4.Frag_1103.chk
#P G4

Frag_1103

0 1
N                     1.148     0.4158    0.1032
C                    -0.2435   -0.009     0.3126
N                    -0.7249   -0.7912   -0.8317
O                    -1.067     1.1178    0.4936
O                    -0.3166   -0.8098    1.4634
H                     1.7482   -0.4345   -0.0024
H                     1.2164    0.9529   -0.7919
H                    -0.6209   -0.2274   -1.7066
H                    -0.1212   -1.6388   -0.9396
H                    -1.0009    1.6729   -0.3269
H                    -0.0175   -0.2487    2.2264

