%nproc=32
%mem=180GB
%chk=G4.Frag_831.chk
#P G4

Frag_831

0 1
C                    -0.9412    1.1061    0.1706
C                    -0.2541   -0.2655    0.0339
N                    -1.1754   -1.2345   -0.5815
N                     0.143    -0.7457    1.3627
C                     0.9877   -0.1107   -0.8217
N                     2.1396    0.5641   -0.311
O                     1.0066   -0.5468   -2.0048
H                    -1.2043    1.5127   -0.8298
H                    -0.2711    1.8299    0.6821
H                    -1.8737    1.0148    0.7677
H                    -2.0098   -1.3597    0.0374
H                    -1.5325   -0.8518   -1.4881
H                     0.5544   -1.7034    1.267
H                    -0.7067   -0.8429    1.9657
H                     2.148     0.9559    0.6566
H                     2.9896    0.6775   -0.9068

