%nproc=32
%mem=180MB
%chk=G4.Frag_1045.chk
#P G4

Frag_1045

0 1
N                     0.742     1.3492    1.204
C                     0.6992    0.4847    0.2383
N                     1.8357    0.3242   -0.6185
C                    -0.5843   -0.2874   -0.0461
N                    -0.2487   -1.6678   -0.4107
N                    -1.472    -0.3075    1.1272
N                    -1.294     0.3364   -1.1681
H                     1.5983    1.9142    1.3996
H                     2.7156    0.8594   -0.4454
H                     1.8014   -0.32     -1.4393
H                     0.2242   -2.1323    0.3992
H                    -1.136    -2.1938   -0.5872
H                    -1.7743    0.6668    1.3603
H                    -0.95     -0.6812    1.9538
H                    -0.6849    0.3107   -2.0187
H                    -1.4721    1.3442   -0.9483

