%nproc=32
%mem=180GB
%chk=G4.Frag_694.chk
#P G4

Frag_694

0 1
C                     1.6688    0.1471    0.0199
N                     0.7034   -0.639    -0.3412
C                    -0.6951   -0.393    -0.1345
N                    -1.5333   -1.3516   -0.3541
O                    -1.1788    0.8506    0.2797
H                     1.4948    1.0699    0.5532
H                     2.6905   -0.137    -0.1914
H                    -2.5598   -1.2118   -0.2211
H                    -0.5905    1.6649    0.3894

