%nproc=32
%mem=180MB
%chk=G4.Frag_517.chk
#P G4

Frag_517

0 1
C                    -0.8315   -1.5517    0.0412
C                    -0.1352   -0.228     0.0494
N                     0.7567    0.0793    1.1293
N                    -0.3358    0.5921   -0.9427
N                     0.3072    1.8299   -1.1065
H                    -0.1202   -2.3407   -0.2803
H                    -1.6975   -1.5385   -0.655
H                    -1.2024   -1.7891    1.0604
H                     0.9774   -0.6523    1.841
H                     1.1213    1.0388    1.3076
H                     0.0163    2.4506   -1.893
H                     1.1438    2.1096   -0.5514

