%nproc=32
%mem=180GB
%chk=G4.Frag_927.chk
#P G4

Frag_927

0 1
C                     1.8965    0.2368    0.2594
C                     0.5172    0.2836   -0.3424
N                     0.2986    1.0175   -1.3767
C                    -0.6186   -0.5236    0.255
N                    -1.6893    0.351     0.7426
N                    -1.1423   -1.465    -0.7356
H                     1.9349   -0.4314    1.1446
H                     2.6192   -0.1375   -0.4958
H                     2.1985    1.2571    0.5763
H                     1.0474    1.5791   -1.8086
H                    -0.2393   -1.1143    1.1179
H                    -2.0357    0.9532   -0.0398
H                    -1.293     0.9864    1.4733
H                    -1.8678   -2.0584   -0.2709
H                    -1.6263   -0.9345   -1.4966

