%nproc=32
%mem=180MB
%chk=G4.Frag_780.chk
#P G4

Frag_780

0 1
C                     1.6532    0.5389   -0.0458
C                     0.5713    0.3381   -0.8055
C                    -0.7789    0.0122   -0.2157
N                    -0.7082   -1.1994    0.6033
O                    -1.2592    1.0943    0.542
H                     2.6069    0.7674   -0.5102
H                     1.6003    0.4718    1.0364
H                     0.6687    0.4026   -1.8853
H                    -1.49     -0.159    -1.0542
H                    -1.667    -1.3944    0.9731
H                    -0.4646   -2.0029   -0.0212
H                    -0.7327    1.1304    1.383

