%nproc=32
%mem=180GB
%chk=G4.Frag_737.chk
#P G4

Frag_737

0 1
N                    -1.46306   0.14651   0.04286
C                    -0.14033  -0.04969  -0.14676
N                     0.76161   0.05665   0.7523
O                     2.03625  -0.20057   0.15938
H                    -1.75307   0.38235   1.29489
H                    -2.15528   0.05921  -0.17885
H                     0.09891  -0.30273  -1.19572
H                     2.61487  -0.09174   0.9248

