%nproc=32
%mem=180MB
%chk=G4.Frag_760.chk
#P G4

Frag_760

0 1
C                     1.0364   -0.1871   -0.1671
C                    -0.4453    0.2217   -0.0873
O                    -1.2128   -0.5699   -0.9607
O                    -0.9276    0.0908    1.2308
O                    -0.5757    1.56     -0.4906
H                     1.6443    0.4356    0.5234
H                     1.1637   -1.2538    0.1158
H                     1.4138   -0.0468   -1.2024
H                    -1.1322   -1.5148   -0.6664
H                    -0.8216   -0.8588    1.5006
H                    -0.143     2.1231    0.204

