%nproc=32
%mem=180MB
%chk=G4.Frag_1003.chk
#P G4

Frag_1003

0 1
C                    -1.48752  -0.05505   0.06977
C                    -0.0833   -0.34259  -0.43088
C                     1.00723   0.18967   0.17171
O                     2.26638  -0.09267  -0.32937
H                    -2.21672  -0.60655  -0.25908
H                    -1.64726   1.21719  -0.13466
H                    -1.74433  -0.5593    0.98925
H                     0.0476   -1.02477  -1.37626
H                     0.95273   0.88162   1.1119
H                     2.90529   0.39246   0.2527

