%nproc=32
%mem=180MB
%chk=G4.Frag_529.chk
#P G4

Frag_529

0 1
C                     2.1243   -0.3328   -0.3253
C                     0.8965    0.3331    0.2238
O                     1.0218    1.1587    1.1163
C                    -0.4809    0.0041   -0.3047
C                    -1.3475   -0.6179    0.7982
N                    -1.1052    1.2122   -0.8482
H                     2.6488   -0.8729    0.4905
H                     2.8052    0.4357   -0.7474
H                     1.872    -1.0599   -1.125
H                    -0.395    -0.7412   -1.1258
H                    -2.3455   -0.886     0.391
H                    -1.4852    0.0927    1.6414
H                    -0.8674   -1.5432    1.1826
H                    -1.3315    1.8713   -0.0673
H                    -2.0105    0.946    -1.3001

