%nproc=32
%mem=180MB
%chk=G4.Frag_1061.chk
#P G4

Frag_1061

0 1
N                    -1.4841   -0.1163    0.07
C                    -0.2854   -0.6042    0.1235
C                     0.9051    0.2343   -0.0736
O                     0.8028    1.4684   -0.3037
H                    -1.6708    0.8947   -0.1152
H                    -0.1545   -1.6601    0.319
H                     1.8869   -0.2167   -0.02

