%nproc=32
%mem=180GB
%chk=G4.Frag_1153.chk
#P G4

Frag_1153

0 1
N                    -1.3055    0.3348   -0.5628
N                    -0.7628   -0.6013    0.1042
N                     0.621    -0.6213    0.3378
N                     1.3786    0.296    -0.1097
H                    -2.3362    0.3302   -0.7247
H                     2.4048    0.2617    0.0756

