%nproc=32
%mem=180MB
%chk=G4.Frag_515.chk
#P G4

Frag_515

0 1
C                    -1.1784   -0.4721    0.8181
C                    -0.4805   -0.0123   -0.4631
N                    -1.0584    1.2513   -0.9254
C                     1.0065    0.121    -0.2399
N                     1.9216   -0.7363   -0.9232
O                     1.4491    0.9867    0.5626
H                    -0.7666   -1.45      1.1478
H                    -1.038     0.2717    1.6318
H                    -2.2666   -0.5945    0.6314
H                    -0.667    -0.7842   -1.242
H                    -0.856     2.0063   -0.2295
H                    -0.5951    1.5213   -1.8239
H                     2.9491   -0.6424   -0.7631
H                     1.5803   -1.4664   -1.5869

