%nproc=32
%mem=180GB
%chk=G4.Frag_980.chk
#P G4

Frag_980

0 1
N                     1.91171  -0.07964   0.07527
C                     0.58154   0.05381  -0.15968
O                     0.21002   0.40842  -1.29708
N                    -0.26012  -0.23156   0.87401
N                    -1.57421  -0.01817   0.28783
H                     2.2055   -0.3654    1.4006
H                     2.58786   0.11483  -0.20789
H                    -2.26416  -0.21515   1.00921
H                    -1.67576   0.9445   -0.08801
H                    -1.72227  -0.61166  -0.55466

