%nproc=32
%mem=180MB
%chk=G4.Frag_938.chk
#P G4

Frag_938

0 1
C                    -1.2997   -1.0787    0.3652
C                    -0.6703    0.283    -0.0167
N                    -0.619     1.1401    1.1804
O                    -1.4758    0.8918   -1.0015
C                     0.7727    0.1132   -0.6133
C                     1.7827   -0.4763    0.4092
O                     1.2419    1.3696   -1.0489
O                     0.7174   -0.7111   -1.7564
H                    -0.7108   -1.5883    1.1547
H                    -1.3892   -1.7428   -0.519
H                    -2.3261   -0.9284    0.7631
H                    -0.4463    2.1292    0.8884
H                    -1.5544    1.1464    1.6494
H                    -2.3638    1.0801   -0.5983
H                     1.8211    0.1381    1.3334
H                     1.5236   -1.5179    0.6894
H                     2.7989   -0.4909   -0.0391
H                     1.5157    1.9038   -0.2584
H                     0.6814   -1.661    -1.4718

