%nproc=32
%mem=180GB
%chk=G4.Frag_512.chk
#P G4

Frag_512

0 1
C                     2.0513    0.0519    0.4213
N                     0.7804   -0.6847    0.5011
O                     0.9358   -1.8361   -0.2048
C                    -0.4127    0.0532   -0.0067
C                    -0.6295    1.3549    0.7986
C                    -1.6615   -0.8328    0.2025
C                    -0.2988    0.3976   -1.5126
H                     2.3084    0.3183   -0.6247
H                     2.8697   -0.5869    0.817
H                     2.0271    0.9593    1.0573
H                     0.8762   -2.5572    0.4728
H                    -1.6135    1.8116    0.5558
H                     0.1446    2.1139    0.5603
H                    -0.5997    1.144     1.8893
H                    -1.6005   -1.7589   -0.4082
H                    -1.7515   -1.1257    1.2709
H                    -2.5885   -0.2952   -0.0934
H                     0.501     1.1433   -1.6999
H                    -1.2499    0.84     -1.8806
H                    -0.0884   -0.5106   -2.1159

