%nproc=32
%mem=180MB
%chk=G4.Frag_823.chk
#P G4

Frag_823

0 1
C                    -1.3983    0.3655    0.0771
C                    -0.3913   -0.6885   -0.3739
N                     0.9307   -0.4289    0.2049
N                     1.5632    0.5771   -0.5506
H                    -2.4106    0.093    -0.2891
H                    -1.4222    0.4217    1.1861
H                    -1.1325    1.3609   -0.3359
H                    -0.7527   -1.6814   -0.0256
H                    -0.342    -0.7184   -1.4862
H                     1.4897   -1.3078    0.0887
H                     2.5929    0.5113   -0.3749
H                     1.2729    1.4955   -0.1446

